@<TRIPOS>MOLECULE
bindingdb_similar_1x70_processed:14
 44 46 0 0 0
SMALL
GASTEIGER

@<TRIPOS>ATOM
      1 C          34.4452   49.2632   36.3126 C.ar    1  LIG1        0.1261
      2 C          34.6249   50.5815   36.6661 C.ar    1  LIG1        0.0091
      3 C          35.8929   51.1167   36.7228 C.ar    1  LIG1        0.1295
      4 C          36.9920   50.3329   36.4280 C.ar    1  LIG1       -0.0067
      5 C          36.8061   49.0121   36.0818 C.ar    1  LIG1       -0.0529
      6 C          35.5393   48.4771   36.0216 C.ar    1  LIG1       -0.0260
      7 C          38.4043   50.9060   36.4670 C.3     1  LIG1        0.0186
      8 C          39.0764   51.0730   35.0850 C.3     1  LIG1       -0.0118
      9 N          38.2184   51.9280   34.1939 N.4     1  LIG1        0.2213
     10 C          40.4557   51.7538   35.2042 C.3     1  LIG1        0.0673
     11 C          41.4844   50.9698   35.9960 C.2     1  LIG1        0.2214
     12 O          41.2351   49.8573   36.4402 O.2     1  LIG1       -0.2754
     13 N          42.6657   51.6012   36.1695 N.am    1  LIG1       -0.2923
     14 C          43.0261   52.8935   35.5309 C.3     1  LIG1        0.0332
     15 C          44.2444   52.6930   34.6032 C.3     1  LIG1        0.0422
     16 C          43.6812   50.9792   37.0444 C.3     1  LIG1        0.0746
     17 C          45.0470   51.1723   36.4212 C.ar    1  LIG1        0.1512
     18 N          45.2821   51.9478   35.3305 N.ar    1  LIG1       -0.3048
     19 C          46.6141   51.8781   35.0452 C.ar    1  LIG1        0.2376
     20 N          47.1518   51.1033   35.9388 N.ar    1  LIG1       -0.1250
     21 N          46.1785   50.6647   36.7968 N.ar    1  LIG1       -0.1324
     22 C          47.3432   52.5561   33.8973 C.3     1  LIG1        0.4524
     23 F          47.1666   53.9355   33.9116 F       1  LIG1       -0.1632
     24 F          48.7120   52.3168   33.9478 F       1  LIG1       -0.1632
     25 F          46.8876   52.0888   32.6689 F       1  LIG1       -0.1632
     26 F          36.0437   52.4045   37.0652 F       1  LIG1       -0.2051
     27 F          33.2077   48.7514   36.2527 F       1  LIG1       -0.2054
     28 H          33.8324   51.1525   36.8802 H       1  LIG1        0.0675
     29 H          37.5974   48.4390   35.8682 H       1  LIG1        0.0622
     30 H          35.4132   47.5188   35.7652 H       1  LIG1        0.0646
     31 H          38.4096   51.9725   37.0188 H       1  LIG1        0.0369
     32 H          39.0730   50.1583   37.1251 H       1  LIG1        0.0369
     33 H          39.2070   49.9951   34.5752 H       1  LIG1        0.0858
     34 H          37.3942   51.5633   34.0823 H       1  LIG1        0.1997
     35 H          38.5806   52.0243   33.3657 H       1  LIG1        0.1997
     36 H          38.1019   52.7597   34.5428 H       1  LIG1        0.1997
     37 H          40.2719   52.8194   35.7257 H       1  LIG1        0.0414
     38 H          40.8683   51.8923   34.0854 H       1  LIG1        0.0414
     39 H          42.1820   53.4480   34.8871 H       1  LIG1        0.0482
     40 H          43.3587   53.6447   36.4052 H       1  LIG1        0.0482
     41 H          43.9124   52.0658   33.6354 H       1  LIG1        0.0508
     42 H          44.6601   53.7648   34.2622 H       1  LIG1        0.0508
     43 H          43.4689   49.8033   37.1591 H       1  LIG1        0.0545
     44 H          43.6515   51.4939   38.1282 H       1  LIG1        0.0545
@<TRIPOS>BOND
     1     1     2   ar
     2     1    27    1
     3     2     3   ar
     4     2    28    1
     5     3     4   ar
     6     3    26    1
     7     4     5   ar
     8     4     7    1
     9     5     6   ar
    10     5    29    1
    11     6     1   ar
    12     6    30    1
    13     7    31    1
    14     7    32    1
    15     8     7    1
    16     8     9    1
    17     8    10    1
    18     8    33    1
    19     9    34    1
    20     9    35    1
    21     9    36    1
    22    10    11    1
    23    10    37    1
    24    10    38    1
    25    11    12    2
    26    11    13   am
    27    13    14    1
    28    13    16    1
    29    14    15    1
    30    14    39    1
    31    14    40    1
    32    15    18    1
    33    15    41    1
    34    15    42    1
    35    16    43    1
    36    16    44    1
    37    17    16    1
    38    17    18   ar
    39    18    19   ar
    40    19    20   ar
    41    19    22    1
    42    20    21   ar
    43    21    17   ar
    44    22    23    1
    45    22    24    1
    46    22    25    1
