bindingdb_similar_1x70_processed:40
 OpenBabel04261912203D

 50 52  0  0  1  0  0  0  0  0999 V2000
   34.4631   49.2384   36.3980 C   0  0  0  0  0  0  0  0  0  0  0  0
   34.6102   50.5852   36.6386 C   0  0  0  0  0  0  0  0  0  0  0  0
   35.8652   51.1553   36.6490 C   0  0  0  0  0  0  0  0  0  0  0  0
   36.9849   50.3785   36.4201 C   0  0  0  0  0  0  0  0  0  0  0  0
   36.8319   49.0293   36.1824 C   0  0  0  0  0  0  0  0  0  0  0  0
   35.5789   48.4576   36.1688 C   0  0  0  0  0  0  0  0  0  0  0  0
   38.3831   50.9859   36.4157 C   0  0  0  0  0  0  0  0  0  0  0  0
   39.0134   51.1550   35.0147 C   0  0  1  0  0  0  0  0  0  0  0  0
   38.1627   52.0559   34.1622 N   0  3  0  0  0  0  0  0  0  0  0  0
   40.4243   51.7728   35.1144 C   0  0  0  0  0  0  0  0  0  0  0  0
   41.4501   50.8865   35.7966 C   0  0  0  0  0  0  0  0  0  0  0  0
   41.1844   49.7319   36.1044 O   0  0  0  0  0  0  0  0  0  0  0  0
   42.6435   51.4762   36.0378 N   0  0  0  0  0  0  0  0  0  0  0  0
   42.9994   52.8509   35.5989 C   0  0  0  0  0  0  0  0  0  0  0  0
   44.3325   52.8967   34.8198 C   0  0  0  0  0  0  0  0  0  0  0  0
   43.6480   50.7402   36.8347 C   0  0  0  0  0  0  0  0  0  0  0  0
   45.0499   51.0807   36.3701 C   0  0  0  0  0  0  0  0  0  0  0  0
   45.3458   52.0570   35.4743 N   0  0  0  0  0  0  0  0  0  0  0  0
   46.7041   52.0595   35.2920 C   0  0  0  0  0  0  0  0  0  0  0  0
   47.1870   51.1268   36.0652 N   0  0  0  0  0  0  0  0  0  0  0  0
   46.1638   50.5232   36.7341 N   0  0  0  0  0  0  0  0  0  0  0  0
   35.4482   47.1445   35.9305 F   0  0  0  0  0  0  0  0  0  0  0  0
   35.9815   52.4709   36.8825 F   0  0  0  0  0  0  0  0  0  0  0  0
   47.5244   52.9132   34.3936 C   0  0  0  0  0  0  0  0  0  0  0  0
   33.2380   48.6929   36.3864 F   0  0  0  0  0  0  0  0  0  0  0  0
   48.7006   52.6156   34.2596 O   0  0  0  0  0  0  0  0  0  0  0  0
   46.9812   53.9704   33.7491 O   0  0  0  0  0  0  0  0  0  0  0  0
   47.8348   54.7554   32.8923 C   0  0  0  0  0  0  0  0  0  0  0  0
   48.7748   55.6654   33.7008 C   0  0  0  0  0  0  0  0  0  0  0  0
   39.0909   50.0802   34.4867 H   0  0  0  0  0  0  0  0  0  0  0  0
   33.8038   51.1527   36.8051 H   0  0  0  0  0  0  0  0  0  0  0  0
   37.6376   48.4611   36.0153 H   0  0  0  0  0  0  0  0  0  0  0  0
   38.3665   52.0581   36.9548 H   0  0  0  0  0  0  0  0  0  0  0  0
   39.0964   50.2741   37.0672 H   0  0  0  0  0  0  0  0  0  0  0  0
   37.3174   51.7335   34.0661 H   0  0  0  0  0  0  0  0  0  0  0  0
   38.4990   52.1538   33.3223 H   0  0  0  0  0  0  0  0  0  0  0  0
   38.0877   52.8902   34.5182 H   0  0  0  0  0  0  0  0  0  0  0  0
   40.3087   52.8029   35.7191 H   0  0  0  0  0  0  0  0  0  0  0  0
   40.7965   51.9777   33.9918 H   0  0  0  0  0  0  0  0  0  0  0  0
   42.2091   53.4138   34.8976 H   0  0  0  0  0  0  0  0  0  0  0  0
   43.1411   53.5078   36.5930 H   0  0  0  0  0  0  0  0  0  0  0  0
   44.1516   52.4879   33.7061 H   0  0  0  0  0  0  0  0  0  0  0  0
   44.6908   54.0403   34.7761 H   0  0  0  0  0  0  0  0  0  0  0  0
   43.4787   49.5582   36.7158 H   0  0  0  0  0  0  0  0  0  0  0  0
   43.5325   51.0407   37.9907 H   0  0  0  0  0  0  0  0  0  0  0  0
   48.4780   54.0279   32.1873 H   0  0  0  0  0  0  0  0  0  0  0  0
   47.1415   55.4538   32.2054 H   0  0  0  0  0  0  0  0  0  0  0  0
   48.1262   56.3712   34.4226 H   0  0  0  0  0  0  0  0  0  0  0  0
   49.4146   56.3456   32.9470 H   0  0  0  0  0  0  0  0  0  0  0  0
   49.5199   54.9940   34.3594 H   0  0  0  0  0  0  0  0  0  0  0  0
  1  2  2  0  0  0  0
  1 25  1  0  0  0  0
  2  3  1  0  0  0  0
  2 31  1  0  0  0  0
  3  4  2  0  0  0  0
  3 23  1  0  0  0  0
  4  5  1  0  0  0  0
  4  7  1  0  0  0  0
  5  6  2  0  0  0  0
  5 32  1  0  0  0  0
  6  1  1  0  0  0  0
  6 22  1  0  0  0  0
  7 33  1  0  0  0  0
  7 34  1  0  0  0  0
  8  7  1  0  0  0  0
  8  9  1  0  0  0  0
  8 10  1  0  0  0  0
  8 30  1  6  0  0  0
  9 35  1  0  0  0  0
  9 36  1  0  0  0  0
  9 37  1  0  0  0  0
 10 11  1  0  0  0  0
 10 38  1  0  0  0  0
 10 39  1  0  0  0  0
 11 12  2  0  0  0  0
 11 13  1  0  0  0  0
 13 14  1  0  0  0  0
 13 16  1  0  0  0  0
 14 15  1  0  0  0  0
 14 40  1  0  0  0  0
 14 41  1  0  0  0  0
 15 18  1  0  0  0  0
 15 42  1  0  0  0  0
 15 43  1  0  0  0  0
 16 44  1  0  0  0  0
 16 45  1  0  0  0  0
 17 16  1  0  0  0  0
 17 18  1  0  0  0  0
 18 19  1  0  0  0  0
 19 20  2  0  0  0  0
 19 24  1  0  0  0  0
 20 21  1  0  0  0  0
 21 17  2  0  0  0  0
 24 26  2  0  0  0  0
 24 27  1  0  0  0  0
 27 28  1  0  0  0  0
 28 29  1  0  0  0  0
 28 46  1  0  0  0  0
 28 47  1  0  0  0  0
 29 48  1  0  0  0  0
 29 49  1  0  0  0  0
 29 50  1  0  0  0  0
M  CHG  1   9   1
M  END
>  <Mean(IC50 fixed2)>
219

>  <First(BindingDB Ligand Name)>
CHEMBL233686

>  <Concatenate(Target Name Assigned by Curator or DataSource)>
Dipeptidyl Peptidase IV (DPP-IV)

>  <First(Target Source Organism According to Curator or DataSource)>
Homo sapiens

>  <First(Curation/DataSource)>
ChEMBL

>  <First(Article DOI)>
10.1016/j.bmcl.2007.03.098

>  <Mean(PMID)>
17434732

>  <First(Authors)>
Kim, D; Kowalchick, JE; Edmondson, SD; Mastracchio, A; Xu, J; Eiermann, GJ; Leiting, B; Wu, JK; Pryor, KD; Patel, RA; He, H; Lyons, KA; Thornberry, NA; Weber, AE

>  <First(Institution)>
Merck Research Laboratories<span class=m1fontSize>Curated by</span> <a href=http://www.ebi.ac.uk/chembl/>ChEMBL</a>

>  <First(Link to Ligand in BindingDB)>
http://www.bindingdb.org/bind/chemsearch/marvin/MolStructure.jsp?monomerid=50210666

>  <First(Link to Ligand-Target Pair in BindingDB)>
http://www.bindingdb.org/jsp/dbsearch/PrimarySearch_ki.jsp?energyterm=kJ/mole&tag=r21&monomerid=50210666&enzyme=Dipeptidyl+Peptidase+IV+%28DPP-IV%29&column=ki&startPg=0&Increment=50&submit=Search

>  <Mean(PubChem CID)>
44431220

>  <Mean(PubChem SID)>
104087153

>  <First(ZINC ID of Ligand)>
ZINC28820860

>  <Concatenate*(UniProt (SwissProt) Entry Name of Target Chain)>
DPP4_HUMAN

>  <Mean(Number of Protein Chains in Target (>1 implies a multichain complex))>
1

>  <Median(pIC50)>
6.65955588515988

>  <Journal>
BiorgMedChemLett2007

>  <Activity Classes>
6.65955588515988

>  <Conformer_cresset>
19

>  <Similarity_cresset>
0.809

>  <Favorite_cresset>
false

>  <Activity (Median(pIC50))_cresset>
6.66

>  <LE (Median(pIC50))_cresset>
0.322

>  <LipE (Median(pIC50))_cresset>
4.7

>  <Tags_cresset>
test

>  <Confs_cresset>
20

>  <Conf#_cresset>
19

>  <Alns_cresset>
10

>  <MW_cresset>
412.4

>  <#Atoms_cresset>
29

>  <SlogP_cresset>
2

>  <TPSA_cresset>
105

>  <Flexibility_cresset>
6.1

>  <#RB_cresset>
7

>  <Rof5_cresset>
0

>  <Filename_cresset>
bindingdb_similar_1x70_processed.sdf

>  <Notes_cresset>
50

>  <Selected Alignment_cresset>
true

>  <Alignment Cluster Centre_cresset>
true

>  <_cresset_fieldpoints>
-5      47.910027      49.731571      37.041126    -12.1026
-5      40.427517      48.103249      36.130043     -6.7765
-5      32.896561      45.854076      36.002441     -2.6666
-6      35.643623      50.652306      33.299442      5.5832
-6      40.563835      54.397469      33.815430     11.0674
-6      42.070606      53.604977      32.752792     11.1644
-7      35.606190      50.143631      33.213017     -2.6285
-7      40.937946      52.260635      38.317459     -2.7799
-7      43.129929      50.045162      33.581451     -2.6238
-7      42.068089      53.384949      32.293037     -1.6136
-7      39.998741      50.406078      31.999823     -1.4983
-7      39.958282      54.515266      33.623810     -1.8468
-7      38.546619      54.534019      36.378654     -2.0519
-7      45.993828      52.154617      31.872967     -2.0312
-7      43.050713      56.083923      35.233715     -1.1939
-7      45.625023      54.456928      37.330364     -2.0206
-7      47.710922      51.248085      38.452656     -1.2793
-7      47.369595      48.727772      35.642418     -1.2812
-7      45.899220      48.120419      37.482861     -1.0541
-7      36.037319      49.263710      39.544197     -2.1449
-7      39.930485      47.880039      35.637016     -2.4797
-7      50.806480      53.043526      33.001598     -1.5158
-7      44.658665      54.529926      32.065559     -1.7610
-7      46.446400      55.258564      36.208641     -2.4044
-7      49.260429      56.033813      30.253551     -1.0128
-7      45.549335      56.348629      34.694809     -1.8301
-8      35.719933      49.806889      36.408581      7.2625
-8      39.502113      51.346786      35.860748      4.9708
-8      36.985325      51.231396      36.568268      5.6135
-8      43.487114      53.410877      34.965881      3.7929
-8      44.136566      50.539944      37.167568      2.7847
-8      43.724190      51.987606      36.129860      2.6305
-8      48.555172      55.484711      33.102715      3.9412
-8      46.687927      51.974030      34.059734      1.3367

$$$$
