bindingdb_similar_1x70_processed:21
 OpenBabel04261912203D

 44 46  0  0  1  0  0  0  0  0999 V2000
   34.3517   49.2524   36.3639 C   0  0  0  0  0  0  0  0  0  0  0  0
   34.5236   50.5733   36.7054 C   0  0  0  0  0  0  0  0  0  0  0  0
   35.7913   51.1077   36.7884 C   0  0  0  0  0  0  0  0  0  0  0  0
   36.8986   50.3198   36.5365 C   0  0  0  0  0  0  0  0  0  0  0  0
   36.7213   48.9862   36.2269 C   0  0  0  0  0  0  0  0  0  0  0  0
   35.4485   48.4569   36.1234 C   0  0  0  0  0  0  0  0  0  0  0  0
   38.3020   50.9154   36.5650 C   0  0  0  0  0  0  0  0  0  0  0  0
   38.9722   51.0713   35.1768 C   0  0  2  0  0  0  0  0  0  0  0  0
   40.3550   51.7476   35.2922 C   0  0  0  0  0  0  0  0  0  0  0  0
   41.3834   50.9694   36.0916 C   0  0  0  0  0  0  0  0  0  0  0  0
   42.5633   51.6048   36.2682 N   0  0  0  0  0  0  0  0  0  0  0  0
   41.1364   49.8570   36.5390 O   0  0  0  0  0  0  0  0  0  0  0  0
   38.1219   51.9117   34.2624 N   0  3  0  0  0  0  0  0  0  0  0  0
   42.9273   52.8956   35.6288 C   0  0  0  0  0  0  0  0  0  0  0  0
   44.1506   52.6940   34.7068 C   0  0  0  0  0  0  0  0  0  0  0  0
   43.5779   50.9906   37.1505 C   0  0  0  0  0  0  0  0  0  0  0  0
   44.9471   51.1811   36.5320 C   0  0  0  0  0  0  0  0  0  0  0  0
   45.1875   51.9520   35.4393 N   0  0  0  0  0  0  0  0  0  0  0  0
   46.5214   51.8822   35.1620 C   0  0  0  0  0  0  0  0  0  0  0  0
   47.0554   51.1129   36.0628 N   0  0  0  0  0  0  0  0  0  0  0  0
   46.0773   50.6766   36.9164 N   0  0  0  0  0  0  0  0  0  0  0  0
   47.2565   52.5561   34.0158 C   0  0  0  0  0  0  0  0  0  0  0  0
   46.8077   52.0829   32.7872 F   0  0  0  0  0  0  0  0  0  0  0  0
   48.6250   52.3172   34.0765 F   0  0  0  0  0  0  0  0  0  0  0  0
   47.0784   53.9354   34.0240 F   0  0  0  0  0  0  0  0  0  0  0  0
   37.7878   48.1998   36.0138 F   0  0  0  0  0  0  0  0  0  0  0  0
   35.2728   47.1746   35.7705 F   0  0  0  0  0  0  0  0  0  0  0  0
   35.9319   52.4039   37.1047 F   0  0  0  0  0  0  0  0  0  0  0  0
   33.4307   48.8708   36.2873 H   0  0  0  0  0  0  0  0  0  0  0  0
   33.7263   51.1511   36.8804 H   0  0  0  0  0  0  0  0  0  0  0  0
   38.2965   51.9921   37.0943 H   0  0  0  0  0  0  0  0  0  0  0  0
   38.9770   50.1879   37.2379 H   0  0  0  0  0  0  0  0  0  0  0  0
   39.1156   49.9879   34.6825 H   0  0  0  0  0  0  0  0  0  0  0  0
   40.1710   52.8174   35.8037 H   0  0  0  0  0  0  0  0  0  0  0  0
   40.7736   51.8748   34.1742 H   0  0  0  0  0  0  0  0  0  0  0  0
   37.3015   51.5420   34.1268 H   0  0  0  0  0  0  0  0  0  0  0  0
   38.4966   52.0193   33.4389 H   0  0  0  0  0  0  0  0  0  0  0  0
   37.9877   52.7433   34.6064 H   0  0  0  0  0  0  0  0  0  0  0  0
   42.0855   53.4495   34.9825 H   0  0  0  0  0  0  0  0  0  0  0  0
   43.2569   53.6441   36.5069 H   0  0  0  0  0  0  0  0  0  0  0  0
   43.8217   52.0592   33.7432 H   0  0  0  0  0  0  0  0  0  0  0  0
   44.5644   53.7645   34.3581 H   0  0  0  0  0  0  0  0  0  0  0  0
   43.3672   49.8158   37.2735 H   0  0  0  0  0  0  0  0  0  0  0  0
   43.5467   51.5198   38.2273 H   0  0  0  0  0  0  0  0  0  0  0  0
  1  2  2  0  0  0  0
  1 29  1  0  0  0  0
  2  3  1  0  0  0  0
  2 30  1  0  0  0  0
  3  4  2  0  0  0  0
  3 28  1  0  0  0  0
  4  5  1  0  0  0  0
  4  7  1  0  0  0  0
  5  6  2  0  0  0  0
  5 26  1  0  0  0  0
  6  1  1  0  0  0  0
  6 27  1  0  0  0  0
  7 31  1  0  0  0  0
  7 32  1  0  0  0  0
  8  7  1  0  0  0  0
  8  9  1  0  0  0  0
  8 13  1  0  0  0  0
  8 33  1  6  0  0  0
  9 10  1  0  0  0  0
  9 34  1  0  0  0  0
  9 35  1  0  0  0  0
 10 11  1  0  0  0  0
 10 12  2  0  0  0  0
 11 14  1  0  0  0  0
 11 16  1  0  0  0  0
 13 36  1  0  0  0  0
 13 37  1  0  0  0  0
 13 38  1  0  0  0  0
 14 15  1  0  0  0  0
 14 39  1  0  0  0  0
 14 40  1  0  0  0  0
 15 18  1  0  0  0  0
 15 41  1  0  0  0  0
 15 42  1  0  0  0  0
 16 43  1  0  0  0  0
 16 44  1  0  0  0  0
 17 16  1  0  0  0  0
 17 18  1  0  0  0  0
 18 19  1  0  0  0  0
 19 20  2  0  0  0  0
 19 22  1  0  0  0  0
 20 21  1  0  0  0  0
 21 17  2  0  0  0  0
 22 23  1  0  0  0  0
 22 24  1  0  0  0  0
 22 25  1  0  0  0  0
M  CHG  1  13   1
M  END
>  <Mean(IC50 fixed2)>
151

>  <First(BindingDB Ligand Name)>
CHEMBL394833

>  <Concatenate(Target Name Assigned by Curator or DataSource)>
Dipeptidyl Peptidase IV (DPP-IV), Dipeptidyl Peptidase IV (DPP-IV)

>  <First(Target Source Organism According to Curator or DataSource)>
Homo sapiens

>  <First(Curation/DataSource)>
ChEMBL

>  <First(Article DOI)>
10.1016/j.bmcl.2007.03.098

>  <Mean(PMID)>
18002548.5

>  <First(Authors)>
Kim, D; Kowalchick, JE; Edmondson, SD; Mastracchio, A; Xu, J; Eiermann, GJ; Leiting, B; Wu, JK; Pryor, KD; Patel, RA; He, H; Lyons, KA; Thornberry, NA; Weber, AE

>  <First(Institution)>
Merck Research Laboratories<span class=m1fontSize>Curated by</span> <a href=http://www.ebi.ac.uk/chembl/>ChEMBL</a>

>  <First(Link to Ligand in BindingDB)>
http://www.bindingdb.org/bind/chemsearch/marvin/MolStructure.jsp?monomerid=50210653

>  <First(Link to Ligand-Target Pair in BindingDB)>
http://www.bindingdb.org/jsp/dbsearch/PrimarySearch_ki.jsp?energyterm=kJ/mole&tag=r21&monomerid=50210653&enzyme=Dipeptidyl+Peptidase+IV+%28DPP-IV%29&column=ki&startPg=0&Increment=50&submit=Search

>  <Mean(PubChem CID)>
44431176

>  <Mean(PubChem SID)>
104087140

>  <First(ZINC ID of Ligand)>
ZINC28820743

>  <Concatenate*(UniProt (SwissProt) Entry Name of Target Chain)>
DPP4_HUMAN, DPP4_HUMAN

>  <Mean(Number of Protein Chains in Target (>1 implies a multichain complex))>
1

>  <Median(pIC50)>
6.82102305270683

>  <Journal>
BiorgMedChemLett2007

>  <Activity Classes>
6.82102305270683

>  <Conformer_cresset>
1

>  <Similarity_cresset>
0.843

>  <Favorite_cresset>
false

>  <Activity (Median(pIC50))_cresset>
6.82

>  <LE (Median(pIC50))_cresset>
0.341

>  <LipE (Median(pIC50))_cresset>
4

>  <Tags_cresset>
training

>  <Confs_cresset>
2

>  <Conf#_cresset>
1

>  <Alns_cresset>
2

>  <MW_cresset>
408.3

>  <#Atoms_cresset>
28

>  <SlogP_cresset>
2.8

>  <TPSA_cresset>
78.7

>  <Flexibility_cresset>
4.9

>  <#RB_cresset>
6

>  <Rof5_cresset>
0

>  <Filename_cresset>
bindingdb_similar_1x70_processed.sdf

>  <Notes_cresset>
27

>  <Selected Alignment_cresset>
true

>  <Alignment Cluster Centre_cresset>
true

>  <_cresset_fieldpoints>
-5      47.733894      49.907307      37.323021    -12.5533
-5      40.532009      48.179958      36.743408     -9.6985
-5      37.610317      45.405304      35.638264     -3.3529
-6      31.522165      50.393890      36.522163      5.2956
-6      35.723129      50.389679      33.305965      5.6507
-6      41.948448      53.438480      32.790318     11.3764
-7      31.164789      50.387722      36.369804     -1.0177
-7      36.897568      49.390163      32.995388     -2.6341
-7      40.763969      52.506256      38.456360     -2.6539
-7      43.015038      49.618935      34.124409     -2.7109
-7      38.362846      54.479321      36.407368     -2.0564
-7      39.855446      54.362518      33.593544     -1.8751
-7      40.026241      50.223305      32.217960     -1.5618
-7      40.966358      48.234715      34.868587     -2.1751
-7      40.408726      48.337154      38.092106     -1.9793
-7      44.451614      54.105404      31.771332     -1.5817
-7      45.679543      54.502388      37.031635     -2.3051
-7      47.852737      52.033680      38.143242     -1.4874
-7      48.977116      54.138916      31.271116     -1.1106
-7      41.843910      53.310875      32.366482     -1.6929
-7      47.203541      48.735611      35.673409     -1.4939
-7      36.088566      49.017162      39.546322     -2.1670
-8      35.633091      49.781944      36.451942      7.2619
-8      39.404526      51.311111      36.024647      4.9532
-8      43.371761      53.290100      34.836555      3.7902
-8      37.653408      49.772655      36.248077      5.7872
-8      36.911545      51.163467      36.715511      5.6337
-8      47.275059      52.599236      33.947388      5.6562
-8      44.084728      50.834145      37.481880      2.7932
-8      43.601810      52.055321      36.268349      2.6673

$$$$
