bindingdb_similar_1x70_processed:41
 OpenBabel04261912203D

 51 54  0  0  1  0  0  0  0  0999 V2000
   34.4507   49.2659   36.3250 C   0  0  0  0  0  0  0  0  0  0  0  0
   34.6283   50.5842   36.6778 C   0  0  0  0  0  0  0  0  0  0  0  0
   35.8958   51.1224   36.7307 C   0  0  0  0  0  0  0  0  0  0  0  0
   36.9936   50.3403   36.4307 C   0  0  0  0  0  0  0  0  0  0  0  0
   36.8120   49.0183   36.0865 C   0  0  0  0  0  0  0  0  0  0  0  0
   35.5466   48.4793   36.0297 C   0  0  0  0  0  0  0  0  0  0  0  0
   38.4016   50.9189   36.4592 C   0  0  0  0  0  0  0  0  0  0  0  0
   39.0566   51.0890   35.0690 C   0  0  2  0  0  0  0  0  0  0  0  0
   40.4416   51.7565   35.1929 C   0  0  0  0  0  0  0  0  0  0  0  0
   38.1990   51.9419   34.1754 N   0  3  0  0  0  0  0  0  0  0  0  0
   41.4626   50.9455   35.9686 C   0  0  0  0  0  0  0  0  0  0  0  0
   42.6637   51.5447   36.1276 N   0  0  0  0  0  0  0  0  0  0  0  0
   41.1937   49.8370   36.4128 O   0  0  0  0  0  0  0  0  0  0  0  0
   43.0322   52.8574   35.5315 C   0  0  0  0  0  0  0  0  0  0  0  0
   44.2620   52.7187   34.6043 C   0  0  0  0  0  0  0  0  0  0  0  0
   43.6785   50.8662   36.9609 C   0  0  0  0  0  0  0  0  0  0  0  0
   45.0637   51.1761   36.4269 C   0  0  0  0  0  0  0  0  0  0  0  0
   45.2777   51.9917   35.3731 N   0  0  0  0  0  0  0  0  0  0  0  0
   46.6178   52.0831   35.1829 N   0  0  0  0  0  0  0  0  0  0  0  0
   47.1616   51.3436   36.1210 C   0  0  0  0  0  0  0  0  0  0  0  0
   46.2196   50.7580   36.9002 N   0  0  0  0  0  0  0  0  0  0  0  0
   36.0489   52.4106   37.0727 F   0  0  0  0  0  0  0  0  0  0  0  0
   33.2137   48.7539   36.2676 F   0  0  0  0  0  0  0  0  0  0  0  0
   35.3853   47.1938   35.6832 F   0  0  0  0  0  0  0  0  0  0  0  0
   48.5860   51.2085   36.3568 C   0  0  0  0  0  0  0  0  0  0  0  0
   49.4919   52.0066   35.6822 C   0  0  0  0  0  0  0  0  0  0  0  0
   50.8359   51.9110   35.9545 C   0  0  0  0  0  0  0  0  0  0  0  0
   51.2889   51.0134   36.8953 C   0  0  0  0  0  0  0  0  0  0  0  0
   50.3947   50.2048   37.5601 C   0  0  0  0  0  0  0  0  0  0  0  0
   49.0498   50.3016   37.2930 C   0  0  0  0  0  0  0  0  0  0  0  0
   33.8354   51.1538   36.8938 H   0  0  0  0  0  0  0  0  0  0  0  0
   37.6046   48.4482   35.8707 H   0  0  0  0  0  0  0  0  0  0  0  0
   39.0785   50.1767   37.1149 H   0  0  0  0  0  0  0  0  0  0  0  0
   38.4050   51.9816   37.0163 H   0  0  0  0  0  0  0  0  0  0  0  0
   39.1805   50.0086   34.5619 H   0  0  0  0  0  0  0  0  0  0  0  0
   40.2727   52.8152   35.7340 H   0  0  0  0  0  0  0  0  0  0  0  0
   40.8524   51.9124   34.0754 H   0  0  0  0  0  0  0  0  0  0  0  0
   37.3745   51.5765   34.0537 H   0  0  0  0  0  0  0  0  0  0  0  0
   38.5619   52.0474   33.3473 H   0  0  0  0  0  0  0  0  0  0  0  0
   38.0763   52.7726   34.5255 H   0  0  0  0  0  0  0  0  0  0  0  0
   42.1880   53.4401   34.9146 H   0  0  0  0  0  0  0  0  0  0  0  0
   43.3592   53.5677   36.4418 H   0  0  0  0  0  0  0  0  0  0  0  0
   43.9654   52.1058   33.6159 H   0  0  0  0  0  0  0  0  0  0  0  0
   44.6772   53.8034   34.3025 H   0  0  0  0  0  0  0  0  0  0  0  0
   43.5099   49.6792   36.9289 H   0  0  0  0  0  0  0  0  0  0  0  0
   43.5811   51.2500   38.0938 H   0  0  0  0  0  0  0  0  0  0  0  0
   49.1668   52.6637   35.0024 H   0  0  0  0  0  0  0  0  0  0  0  0
   51.4855   52.4972   35.4709 H   0  0  0  0  0  0  0  0  0  0  0  0
   52.2665   50.9487   37.0956 H   0  0  0  0  0  0  0  0  0  0  0  0
   50.7232   49.5501   38.2409 H   0  0  0  0  0  0  0  0  0  0  0  0
   48.4026   49.7180   37.7834 H   0  0  0  0  0  0  0  0  0  0  0  0
  1  2  2  0  0  0  0
  1 23  1  0  0  0  0
  2  3  1  0  0  0  0
  2 31  1  0  0  0  0
  3  4  2  0  0  0  0
  3 22  1  0  0  0  0
  4  5  1  0  0  0  0
  4  7  1  0  0  0  0
  5  6  2  0  0  0  0
  5 32  1  0  0  0  0
  6  1  1  0  0  0  0
  6 24  1  0  0  0  0
  7 33  1  0  0  0  0
  7 34  1  0  0  0  0
  8  7  1  0  0  0  0
  8  9  1  0  0  0  0
  8 10  1  0  0  0  0
  8 35  1  6  0  0  0
  9 11  1  0  0  0  0
  9 36  1  0  0  0  0
  9 37  1  0  0  0  0
 10 38  1  0  0  0  0
 10 39  1  0  0  0  0
 10 40  1  0  0  0  0
 11 12  1  0  0  0  0
 11 13  2  0  0  0  0
 12 14  1  0  0  0  0
 12 16  1  0  0  0  0
 14 15  1  0  0  0  0
 14 41  1  0  0  0  0
 14 42  1  0  0  0  0
 15 18  1  0  0  0  0
 15 43  1  0  0  0  0
 15 44  1  0  0  0  0
 16 45  1  0  0  0  0
 16 46  1  0  0  0  0
 17 16  1  0  0  0  0
 17 18  1  0  0  0  0
 18 19  1  0  0  0  0
 19 20  2  0  0  0  0
 20 21  1  0  0  0  0
 20 25  1  0  0  0  0
 21 17  2  0  0  0  0
 25 26  2  0  0  0  0
 26 27  1  0  0  0  0
 26 47  1  0  0  0  0
 27 28  2  0  0  0  0
 27 48  1  0  0  0  0
 28 29  1  0  0  0  0
 28 49  1  0  0  0  0
 29 30  2  0  0  0  0
 29 50  1  0  0  0  0
 30 25  1  0  0  0  0
 30 51  1  0  0  0  0
M  CHG  1  10   1
M  END
>  <Mean(IC50 fixed2)>
68

>  <First(BindingDB Ligand Name)>
CHEMBL401057

>  <Concatenate(Target Name Assigned by Curator or DataSource)>
Dipeptidyl Peptidase IV (DPP-IV)

>  <First(Target Source Organism According to Curator or DataSource)>
Homo sapiens

>  <First(Curation/DataSource)>
ChEMBL

>  <First(Article DOI)>
10.1016/j.bmcl.2007.07.100

>  <Mean(PMID)>
17827003

>  <First(Authors)>
Kowalchick, JE; Leiting, B; Pryor, KD; Marsilio, F; Wu, JK; He, H; Lyons, KA; Eiermann, GJ; Petrov, A; Scapin, G; Patel, RA; Thornberry, NA; Weber, AE; Kim, D

>  <First(Institution)>
Merck Research Laboratories<span class=m1fontSize>Curated by</span> <a href=http://www.ebi.ac.uk/chembl/>ChEMBL</a>

>  <First(Link to Ligand in BindingDB)>
http://www.bindingdb.org/bind/chemsearch/marvin/MolStructure.jsp?monomerid=50221448

>  <First(Link to Ligand-Target Pair in BindingDB)>
http://www.bindingdb.org/jsp/dbsearch/PrimarySearch_ki.jsp?energyterm=kJ/mole&tag=r21&monomerid=50221448&enzyme=Dipeptidyl+Peptidase+IV+%28DPP-IV%29&column=ki&startPg=0&Increment=50&submit=Search

>  <Mean(PubChem CID)>
44444352

>  <Mean(PubChem SID)>
104094105

>  <First(ZINC ID of Ligand)>
ZINC28958850

>  <Concatenate*(UniProt (SwissProt) Entry Name of Target Chain)>
DPP4_HUMAN

>  <Mean(Number of Protein Chains in Target (>1 implies a multichain complex))>
1

>  <Median(pIC50)>
7.16749108729376

>  <Journal>
Kow BioorgMedChemLett2007

>  <Activity Classes>
7.16749108729376

>  <Conformer_cresset>
1

>  <Similarity_cresset>
0.722

>  <Favorite_cresset>
false

>  <Activity (Median(pIC50))_cresset>
7.17

>  <LE (Median(pIC50))_cresset>
0.335

>  <LipE (Median(pIC50))_cresset>
3.7

>  <Tags_cresset>
training

>  <Confs_cresset>
3

>  <Conf#_cresset>
1

>  <Alns_cresset>
3

>  <MW_cresset>
416.4

>  <#Atoms_cresset>
30

>  <SlogP_cresset>
3.5

>  <TPSA_cresset>
78.7

>  <Flexibility_cresset>
4.9

>  <#RB_cresset>
6

>  <Rof5_cresset>
0

>  <Filename_cresset>
bindingdb_similar_1x70_processed.sdf

>  <Notes_cresset>
28

>  <Selected Alignment_cresset>
true

>  <Alignment Cluster Centre_cresset>
true

>  <_cresset_fieldpoints>
-5      40.579472      48.169392      36.732437     -6.7683
-5      49.750919      49.067211      34.521629     -5.0706
-5      49.302212      53.069820      38.666225     -4.8123
-5      32.797413      45.961826      35.669270     -2.6528
-6      35.673985      50.553967      33.265244      5.4113
-6      41.880531      53.489292      32.738029     10.4984
-6      53.928864      52.485462      35.859978      2.4280
-6      51.068291      54.229126      33.845142      2.4283
-6      40.662842      54.134609      33.451145     10.3591
-6      53.332302      49.480698      38.700760      2.2385
-7      35.356407      50.386166      33.231670     -2.5489
-7      36.030663      48.989468      39.457275     -2.1438
-7      37.034523      49.403385      32.896580     -2.4248
-7      40.921001      52.452888      38.364929     -2.6412
-7      38.468464      54.482033      36.348225     -2.0577
-7      39.937962      54.398941      33.544430     -1.8598
-7      40.138748      50.316570      32.091564     -1.5145
-7      41.880337      53.404865      32.308777     -1.6118
-7      43.016373      49.667385      33.910980     -2.5646
-7      40.002647      47.915352      35.914570     -2.5495
-7      46.201626      54.422195      36.561588     -2.2585
-7      49.366318      53.375160      38.880222     -1.8559
-7      43.329475      56.049801      35.046177     -1.1199
-7      50.028374      48.867672      34.275352     -1.8180
-7      46.350262      50.211628      39.318752     -1.9935
-7      50.636711      54.548233      33.790840     -1.0045
-7      54.176735      52.513344      35.923306     -0.9688
-7      53.354313      49.201012      38.893875     -0.9687
-8      35.717724      49.801701      36.378693      7.2661
-8      39.503460      51.322491      35.919128      4.9565
-8      37.013809      51.184765      36.646542      5.6241
-8      43.443066      53.297451      34.753185      3.7152
-8      44.190781      50.650913      37.269920      2.8126
-8      49.942146      51.107834      36.622448      7.1322
-8      43.551006      51.903324      36.191887      2.5582

$$$$
