bindingdb_similar_1x70_processed:24
 OpenBabel04261912203D

 44 46  0  0  1  0  0  0  0  0999 V2000
   34.4426   49.2562   36.3250 C   0  0  0  0  0  0  0  0  0  0  0  0
   34.6229   50.5733   36.6960 C   0  0  0  0  0  0  0  0  0  0  0  0
   35.8932   51.1139   36.7337 C   0  0  0  0  0  0  0  0  0  0  0  0
   36.9915   50.3309   36.4342 C   0  0  0  0  0  0  0  0  0  0  0  0
   36.8088   49.0037   36.0989 C   0  0  0  0  0  0  0  0  0  0  0  0
   35.5373   48.4700   36.0276 C   0  0  0  0  0  0  0  0  0  0  0  0
   38.3985   50.9201   36.4563 C   0  0  0  0  0  0  0  0  0  0  0  0
   39.0705   51.0847   35.0716 C   0  0  1  0  0  0  0  0  0  0  0  0
   38.2147   51.9331   34.1696 N   0  3  0  0  0  0  0  0  0  0  0  0
   40.4539   51.7589   35.1965 C   0  0  0  0  0  0  0  0  0  0  0  0
   41.4803   50.9724   35.9911 C   0  0  0  0  0  0  0  0  0  0  0  0
   41.2322   49.8587   36.4348 O   0  0  0  0  0  0  0  0  0  0  0  0
   42.6628   51.6031   36.1677 N   0  0  0  0  0  0  0  0  0  0  0  0
   43.0278   52.8967   35.5343 C   0  0  0  0  0  0  0  0  0  0  0  0
   44.2459   52.6964   34.6051 C   0  0  0  0  0  0  0  0  0  0  0  0
   43.6802   50.9824   37.0425 C   0  0  0  0  0  0  0  0  0  0  0  0
   45.0473   51.1726   36.4191 C   0  0  0  0  0  0  0  0  0  0  0  0
   45.2847   51.9487   35.3296 N   0  0  0  0  0  0  0  0  0  0  0  0
   46.6174   51.8772   35.0457 C   0  0  0  0  0  0  0  0  0  0  0  0
   47.1535   51.1018   35.9400 N   0  0  0  0  0  0  0  0  0  0  0  0
   46.1781   50.6636   36.7957 N   0  0  0  0  0  0  0  0  0  0  0  0
   47.3496   52.5545   33.8999 C   0  0  0  0  0  0  0  0  0  0  0  0
   47.1751   53.9343   33.9158 F   0  0  0  0  0  0  0  0  0  0  0  0
   46.8948   52.0887   32.6707 F   0  0  0  0  0  0  0  0  0  0  0  0
   48.7180   52.3118   33.9539 F   0  0  0  0  0  0  0  0  0  0  0  0
   36.0529   52.4081   37.0569 F   0  0  0  0  0  0  0  0  0  0  0  0
   33.2043   48.7418   36.2452 F   0  0  0  0  0  0  0  0  0  0  0  0
   35.3652   47.1899   35.6589 F   0  0  0  0  0  0  0  0  0  0  0  0
   33.5611   51.3321   37.0140 F   0  0  0  0  0  0  0  0  0  0  0  0
   37.8727   48.2308   35.8256 F   0  0  0  0  0  0  0  0  0  0  0  0
   39.0724   50.1811   37.1177 H   0  0  0  0  0  0  0  0  0  0  0  0
   38.3988   51.9906   36.9984 H   0  0  0  0  0  0  0  0  0  0  0  0
   39.2148   50.0079   34.5622 H   0  0  0  0  0  0  0  0  0  0  0  0
   37.3931   51.5658   34.0389 H   0  0  0  0  0  0  0  0  0  0  0  0
   38.5820   52.0467   33.3445 H   0  0  0  0  0  0  0  0  0  0  0  0
   38.0838   52.7613   34.5216 H   0  0  0  0  0  0  0  0  0  0  0  0
   40.2735   52.8257   35.7156 H   0  0  0  0  0  0  0  0  0  0  0  0
   40.8725   51.8946   34.0796 H   0  0  0  0  0  0  0  0  0  0  0  0
   42.1843   53.4590   34.8969 H   0  0  0  0  0  0  0  0  0  0  0  0
   43.3637   53.6381   36.4158 H   0  0  0  0  0  0  0  0  0  0  0  0
   43.9096   52.0670   33.6402 H   0  0  0  0  0  0  0  0  0  0  0  0
   44.6607   53.7674   34.2596 H   0  0  0  0  0  0  0  0  0  0  0  0
   43.4671   49.8079   37.1649 H   0  0  0  0  0  0  0  0  0  0  0  0
   43.6564   51.5082   38.1206 H   0  0  0  0  0  0  0  0  0  0  0  0
  1  2  2  0  0  0  0
  1 27  1  0  0  0  0
  2  3  1  0  0  0  0
  2 29  1  0  0  0  0
  3  4  2  0  0  0  0
  3 26  1  0  0  0  0
  4  5  1  0  0  0  0
  4  7  1  0  0  0  0
  5  6  2  0  0  0  0
  5 30  1  0  0  0  0
  6  1  1  0  0  0  0
  6 28  1  0  0  0  0
  7 31  1  0  0  0  0
  7 32  1  0  0  0  0
  8  7  1  0  0  0  0
  8  9  1  0  0  0  0
  8 10  1  0  0  0  0
  8 33  1  6  0  0  0
  9 34  1  0  0  0  0
  9 35  1  0  0  0  0
  9 36  1  0  0  0  0
 10 11  1  0  0  0  0
 10 37  1  0  0  0  0
 10 38  1  0  0  0  0
 11 12  2  0  0  0  0
 11 13  1  0  0  0  0
 13 14  1  0  0  0  0
 13 16  1  0  0  0  0
 14 15  1  0  0  0  0
 14 39  1  0  0  0  0
 14 40  1  0  0  0  0
 15 18  1  0  0  0  0
 15 41  1  0  0  0  0
 15 42  1  0  0  0  0
 16 43  1  0  0  0  0
 16 44  1  0  0  0  0
 17 16  1  0  0  0  0
 17 18  1  0  0  0  0
 18 19  1  0  0  0  0
 19 20  2  0  0  0  0
 19 22  1  0  0  0  0
 20 21  1  0  0  0  0
 21 17  2  0  0  0  0
 22 23  1  0  0  0  0
 22 24  1  0  0  0  0
 22 25  1  0  0  0  0
M  CHG  1   9   1
M  END
>  <Mean(IC50 fixed2)>
1018

>  <First(BindingDB Ligand Name)>
CHEMBL397743

>  <Concatenate(Target Name Assigned by Curator or DataSource)>
Dipeptidyl Peptidase IV (DPP-IV)

>  <First(Target Source Organism According to Curator or DataSource)>
Homo sapiens

>  <First(Curation/DataSource)>
ChEMBL

>  <First(Article DOI)>
10.1016/j.bmcl.2007.03.098

>  <Mean(PMID)>
17434732

>  <First(Authors)>
Kim, D; Kowalchick, JE; Edmondson, SD; Mastracchio, A; Xu, J; Eiermann, GJ; Leiting, B; Wu, JK; Pryor, KD; Patel, RA; He, H; Lyons, KA; Thornberry, NA; Weber, AE

>  <First(Institution)>
Merck Research Laboratories<span class=m1fontSize>Curated by</span> <a href=http://www.ebi.ac.uk/chembl/>ChEMBL</a>

>  <First(Link to Ligand in BindingDB)>
http://www.bindingdb.org/bind/chemsearch/marvin/MolStructure.jsp?monomerid=50210654

>  <First(Link to Ligand-Target Pair in BindingDB)>
http://www.bindingdb.org/jsp/dbsearch/PrimarySearch_ki.jsp?energyterm=kJ/mole&tag=r21&monomerid=50210654&enzyme=Dipeptidyl+Peptidase+IV+%28DPP-IV%29&column=ki&startPg=0&Increment=50&submit=Search

>  <Mean(PubChem CID)>
44431185

>  <Mean(PubChem SID)>
104087141

>  <First(ZINC ID of Ligand)>
ZINC36310934

>  <Concatenate*(UniProt (SwissProt) Entry Name of Target Chain)>
DPP4_HUMAN

>  <Mean(Number of Protein Chains in Target (>1 implies a multichain complex))>
1

>  <Median(pIC50)>
5.99225222199926

>  <Journal>
BiorgMedChemLett2007

>  <Activity Classes>
5.99225222199926

>  <Conformer_cresset>
1

>  <Similarity_cresset>
0.848

>  <Favorite_cresset>
false

>  <Activity (Median(pIC50))_cresset>
5.99

>  <LE (Median(pIC50))_cresset>
0.280

>  <LipE (Median(pIC50))_cresset>
2.3

>  <Tags_cresset>
training

>  <Confs_cresset>
2

>  <Conf#_cresset>
1

>  <Alns_cresset>
2

>  <MW_cresset>
444.3

>  <#Atoms_cresset>
30

>  <SlogP_cresset>
3.7

>  <TPSA_cresset>
78.7

>  <Flexibility_cresset>
4.9

>  <#RB_cresset>
6

>  <Rof5_cresset>
0

>  <Filename_cresset>
bindingdb_similar_1x70_processed.sdf

>  <Notes_cresset>
29

>  <Selected Alignment_cresset>
true

>  <Alignment Cluster Centre_cresset>
true

>  <_cresset_fieldpoints>
-5      40.662823      48.161327      36.598110     -8.5675
-5      47.839123      49.892902      37.190716    -12.2744
-5      30.823801      50.236217      37.021870     -1.4794
-5      32.748890      45.908276      35.606720     -1.8409
-5      37.692036      45.384106      35.399178     -2.3315
-6      35.565823      50.578590      33.556900      8.4645
-6      35.747559      49.154167      39.249409      4.9287
-6      42.014748      53.445766      32.707550     11.8854
-7      40.859303      52.492916      38.365330     -2.6485
-7      41.932819      53.342190      32.281666     -1.6936
-7      36.718479      49.503544      32.897133     -2.6351
-7      39.955544      54.377613      33.505669     -1.8757
-7      38.465260      54.487202      36.327419     -2.0637
-7      40.121437      50.272030      32.105473     -1.5623
-7      41.074364      48.262814      34.732937     -2.1771
-7      40.464264      48.268448      37.901131     -1.9808
-7      44.535824      54.123119      31.676035     -1.5816
-7      43.098259      49.628525      34.008778     -2.7121
-7      47.960068      52.002205      38.025536     -1.4876
-7      45.792019      54.492191      36.929604     -2.3051
-7      47.297089      48.726719      35.548481     -1.4942
-7      49.075100      54.141033      31.153727     -1.1106
-7      36.019405      48.969353      39.434216     -2.3701
-7      35.340473      50.409912      33.274509     -2.7733
-8      35.713360      49.790077      36.381969      7.3072
-8      37.011375      51.174564      36.641571      5.6516
-8      39.507328      51.316139      35.923946      4.9570
-8      37.748463      49.789410      36.119431      5.8003
-8      47.371452      52.599850      33.829605      5.6559
-8      44.188950      50.827694      37.376324      2.7940
-8      43.703377      52.050259      36.171257      2.6691
-8      43.466492      53.288826      34.740814      3.7903

$$$$
