@<TRIPOS>MOLECULE
bindingdb_similar_1x70_processed:8
 45 47 0 0 0
SMALL
GASTEIGER

@<TRIPOS>ATOM
      1 C          34.4984   49.1779   36.3498 C.ar    1  LIG1       -0.0237
      2 C          34.6035   50.5175   36.6397 C.ar    1  LIG1       -0.0235
      3 C          35.8411   51.1235   36.6747 C.ar    1  LIG1        0.1269
      4 C          36.9835   50.3885   36.4202 C.ar    1  LIG1       -0.0042
      5 C          36.8712   49.0460   36.1333 C.ar    1  LIG1       -0.0204
      6 C          35.6336   48.4402   36.0954 C.ar    1  LIG1        0.1238
      7 C          38.3645   51.0322   36.4455 C.3     1  LIG1        0.0187
      8 C          39.0563   51.1615   35.0691 C.3     1  LIG1       -0.0118
      9 N          38.2216   51.9979   34.1391 N.4     1  LIG1        0.2213
     10 C          40.4428   51.8252   35.2083 C.3     1  LIG1        0.0673
     11 C          41.4509   50.9957   35.9823 C.2     1  LIG1        0.2214
     12 O          41.1664   49.8818   36.4023 O.2     1  LIG1       -0.2754
     13 N          42.6551   51.5831   36.1649 N.am    1  LIG1       -0.2923
     14 C          43.0433   52.9008   35.5972 C.3     1  LIG1        0.0332
     15 C          44.2673   52.7474   34.6665 C.3     1  LIG1        0.0420
     16 C          43.6662   50.8913   36.9928 C.3     1  LIG1        0.0746
     17 C          45.0365   51.0935   36.3790 C.ar    1  LIG1        0.1510
     18 N          45.2894   51.9374   35.3446 N.ar    1  LIG1       -0.3101
     19 C          46.6206   51.8649   35.0619 C.ar    1  LIG1        0.1592
     20 N          47.1430   51.0195   35.8976 N.ar    1  LIG1       -0.1319
     21 N          46.1575   50.5382   36.7187 N.ar    1  LIG1       -0.1326
     22 F          35.5335   47.1349   35.8097 F       1  LIG1       -0.2055
     23 F          35.9190   52.4322   36.9579 F       1  LIG1       -0.2052
     24 C          47.3651   52.6250   33.9835 C.3     1  LIG1        0.1039
     25 O          48.3845   51.7847   33.4230 O.3     1  LIG1       -0.3873
     26 H          39.1910   50.0682   34.5931 H       1  LIG1        0.0858
     27 H          33.5998   48.7400   36.3232 H       1  LIG1        0.0647
     28 H          33.7800   51.0538   36.8248 H       1  LIG1        0.0647
     29 H          37.6933   48.5076   35.9482 H       1  LIG1        0.0650
     30 H          38.3037   52.1243   36.9393 H       1  LIG1        0.0369
     31 H          39.0547   50.3579   37.1576 H       1  LIG1        0.0369
     32 H          37.3922   51.6446   34.0162 H       1  LIG1        0.1997
     33 H          38.5960   52.0732   33.3132 H       1  LIG1        0.1997
     34 H          38.1051   52.8425   34.4570 H       1  LIG1        0.1997
     35 H          40.2744   52.8795   35.7565 H       1  LIG1        0.0414
     36 H          40.8657   51.9885   34.0970 H       1  LIG1        0.0414
     37 H          42.2085   53.5034   34.9862 H       1  LIG1        0.0482
     38 H          43.3801   53.5910   36.5191 H       1  LIG1        0.0482
     39 H          43.9318   52.1909   33.6576 H       1  LIG1        0.0508
     40 H          44.7121   53.8292   34.3985 H       1  LIG1        0.0508
     41 H          43.4311   49.7158   37.0429 H       1  LIG1        0.0545
     42 H          43.6541   51.3483   38.1023 H       1  LIG1        0.0545
     43 H          46.5970   52.9495   33.1205 H       1  LIG1        0.0639
     44 H          47.8693   53.6045   34.4592 H       1  LIG1        0.0639
     45 H          47.9904   50.9541   33.0146 H       1  LIG1        0.2100
@<TRIPOS>BOND
     1     1     2   ar
     2     1    27    1
     3     2     3   ar
     4     2    28    1
     5     3     4   ar
     6     3    23    1
     7     4     5   ar
     8     4     7    1
     9     5     6   ar
    10     5    29    1
    11     6     1   ar
    12     6    22    1
    13     7    30    1
    14     7    31    1
    15     8     7    1
    16     8     9    1
    17     8    10    1
    18     8    26    1
    19     9    32    1
    20     9    33    1
    21     9    34    1
    22    10    11    1
    23    10    35    1
    24    10    36    1
    25    11    12    2
    26    11    13   am
    27    13    14    1
    28    13    16    1
    29    14    15    1
    30    14    37    1
    31    14    38    1
    32    15    18    1
    33    15    39    1
    34    15    40    1
    35    16    41    1
    36    16    42    1
    37    17    16    1
    38    17    18   ar
    39    18    19   ar
    40    19    20   ar
    41    19    24    1
    42    20    21   ar
    43    21    17   ar
    44    24    25    1
    45    24    43    1
    46    24    44    1
    47    25    45    1
