bindingdb_similar_1x70_processed:18
 OpenBabel04261912203D

 48 51  0  0  1  0  0  0  0  0999 V2000
   34.5001   49.2327   36.3353 C   0  0  0  0  0  0  0  0  0  0  0  0
   34.6190   50.5671   36.6494 C   0  0  0  0  0  0  0  0  0  0  0  0
   35.8619   51.1608   36.6932 C   0  0  0  0  0  0  0  0  0  0  0  0
   36.9965   50.4203   36.4231 C   0  0  0  0  0  0  0  0  0  0  0  0
   36.8730   49.0826   36.1156 C   0  0  0  0  0  0  0  0  0  0  0  0
   35.6318   48.4873   36.0686 C   0  0  0  0  0  0  0  0  0  0  0  0
   38.3822   51.0524   36.4526 C   0  0  0  0  0  0  0  0  0  0  0  0
   39.0875   51.1623   35.0809 C   0  0  2  0  0  0  0  0  0  0  0  0
   40.4604   51.8539   35.2219 C   0  0  0  0  0  0  0  0  0  0  0  0
   38.2495   51.9589   34.1193 N   0  3  0  0  0  0  0  0  0  0  0  0
   41.4702   51.0609   36.0313 C   0  0  0  0  0  0  0  0  0  0  0  0
   42.6586   51.6758   36.2245 N   0  0  0  0  0  0  0  0  0  0  0  0
   41.2012   49.9496   36.4678 O   0  0  0  0  0  0  0  0  0  0  0  0
   43.0394   52.9820   35.6242 C   0  0  0  0  0  0  0  0  0  0  0  0
   44.2463   52.8081   34.6734 C   0  0  0  0  0  0  0  0  0  0  0  0
   43.6694   51.0186   37.0812 C   0  0  0  0  0  0  0  0  0  0  0  0
   45.0171   51.1404   36.4029 C   0  0  0  0  0  0  0  0  0  0  0  0
   45.2311   51.9540   35.3477 N   0  0  0  0  0  0  0  0  0  0  0  0
   46.5310   51.8234   34.9854 N   0  0  0  0  0  0  0  0  0  0  0  0
   47.0459   50.9620   35.8178 C   0  0  0  0  0  0  0  0  0  0  0  0
   46.1381   50.5175   36.7123 N   0  0  0  0  0  0  0  0  0  0  0  0
   35.9521   52.4628   37.0001 F   0  0  0  0  0  0  0  0  0  0  0  0
   33.2862   48.6653   36.2891 F   0  0  0  0  0  0  0  0  0  0  0  0
   35.5275   47.1863   35.7613 F   0  0  0  0  0  0  0  0  0  0  0  0
   48.4909   50.5133   35.7835 C   0  0  0  0  0  0  0  0  0  0  0  0
   49.1795   50.2983   37.1399 C   0  0  0  0  0  0  0  0  0  0  0  0
   48.7809   49.0891   36.2809 C   0  0  0  0  0  0  0  0  0  0  0  0
   39.2463   50.0606   34.6326 H   0  0  0  0  0  0  0  0  0  0  0  0
   33.8011   51.1082   36.8449 H   0  0  0  0  0  0  0  0  0  0  0  0
   37.6908   48.5409   35.9210 H   0  0  0  0  0  0  0  0  0  0  0  0
   38.3279   52.1483   36.9387 H   0  0  0  0  0  0  0  0  0  0  0  0
   39.0577   50.3738   37.1745 H   0  0  0  0  0  0  0  0  0  0  0  0
   40.2627   52.9169   35.7424 H   0  0  0  0  0  0  0  0  0  0  0  0
   40.9006   52.0015   34.1151 H   0  0  0  0  0  0  0  0  0  0  0  0
   37.4298   51.5848   33.9918 H   0  0  0  0  0  0  0  0  0  0  0  0
   38.6350   52.0229   33.2975 H   0  0  0  0  0  0  0  0  0  0  0  0
   38.1095   52.8078   34.4154 H   0  0  0  0  0  0  0  0  0  0  0  0
   42.1928   53.5777   35.0226 H   0  0  0  0  0  0  0  0  0  0  0  0
   43.3972   53.6865   36.5273 H   0  0  0  0  0  0  0  0  0  0  0  0
   43.8854   52.2704   33.6631 H   0  0  0  0  0  0  0  0  0  0  0  0
   44.7263   53.8772   34.4156 H   0  0  0  0  0  0  0  0  0  0  0  0
   43.4078   49.8574   37.2315 H   0  0  0  0  0  0  0  0  0  0  0  0
   43.7061   51.5633   38.1499 H   0  0  0  0  0  0  0  0  0  0  0  0
   49.2063   50.8932   34.8982 H   0  0  0  0  0  0  0  0  0  0  0  0
   48.4964   50.4890   38.1080 H   0  0  0  0  0  0  0  0  0  0  0  0
   50.3538   50.5432   37.1717 H   0  0  0  0  0  0  0  0  0  0  0  0
   49.6854   48.5236   35.7311 H   0  0  0  0  0  0  0  0  0  0  0  0
   47.8284   48.4711   36.6690 H   0  0  0  0  0  0  0  0  0  0  0  0
  1  2  2  0  0  0  0
  1 23  1  0  0  0  0
  2  3  1  0  0  0  0
  2 29  1  0  0  0  0
  3  4  2  0  0  0  0
  3 22  1  0  0  0  0
  4  5  1  0  0  0  0
  4  7  1  0  0  0  0
  5  6  2  0  0  0  0
  5 30  1  0  0  0  0
  6  1  1  0  0  0  0
  6 24  1  0  0  0  0
  7 31  1  0  0  0  0
  7 32  1  0  0  0  0
  8  7  1  0  0  0  0
  8  9  1  0  0  0  0
  8 10  1  0  0  0  0
  8 28  1  6  0  0  0
  9 11  1  0  0  0  0
  9 33  1  0  0  0  0
  9 34  1  0  0  0  0
 10 35  1  0  0  0  0
 10 36  1  0  0  0  0
 10 37  1  0  0  0  0
 11 12  1  0  0  0  0
 11 13  2  0  0  0  0
 12 14  1  0  0  0  0
 12 16  1  0  0  0  0
 14 15  1  0  0  0  0
 14 38  1  0  0  0  0
 14 39  1  0  0  0  0
 15 18  1  0  0  0  0
 15 40  1  0  0  0  0
 15 41  1  0  0  0  0
 16 42  1  0  0  0  0
 16 43  1  0  0  0  0
 17 16  1  0  0  0  0
 17 18  1  0  0  0  0
 18 19  1  0  0  0  0
 19 20  2  0  0  0  0
 20 21  1  0  0  0  0
 20 25  1  0  0  0  0
 21 17  2  0  0  0  0
 25 27  1  0  0  0  0
 25 44  1  0  0  0  0
 26 25  1  0  0  0  0
 26 45  1  0  0  0  0
 26 46  1  0  0  0  0
 27 26  1  0  0  0  0
 27 47  1  0  0  0  0
 27 48  1  0  0  0  0
M  CHG  1  10   1
M  END
>  <Mean(IC50 fixed2)>
71

>  <First(BindingDB Ligand Name)>
CHEMBL248936

>  <Concatenate(Target Name Assigned by Curator or DataSource)>
Dipeptidyl Peptidase IV (DPP-IV)

>  <First(Target Source Organism According to Curator or DataSource)>
Homo sapiens

>  <First(Curation/DataSource)>
ChEMBL

>  <First(Article DOI)>
10.1016/j.bmcl.2007.07.100

>  <Mean(PMID)>
17827003

>  <First(Authors)>
Kowalchick, JE; Leiting, B; Pryor, KD; Marsilio, F; Wu, JK; He, H; Lyons, KA; Eiermann, GJ; Petrov, A; Scapin, G; Patel, RA; Thornberry, NA; Weber, AE; Kim, D

>  <First(Institution)>
Merck Research Laboratories<span class=m1fontSize>Curated by</span> <a href=http://www.ebi.ac.uk/chembl/>ChEMBL</a>

>  <First(Link to Ligand in BindingDB)>
http://www.bindingdb.org/bind/chemsearch/marvin/MolStructure.jsp?monomerid=50221441

>  <First(Link to Ligand-Target Pair in BindingDB)>
http://www.bindingdb.org/jsp/dbsearch/PrimarySearch_ki.jsp?energyterm=kJ/mole&tag=r21&monomerid=50221441&enzyme=Dipeptidyl+Peptidase+IV+%28DPP-IV%29&column=ki&startPg=0&Increment=50&submit=Search

>  <Mean(PubChem CID)>
10429788

>  <Mean(PubChem SID)>
104094098

>  <First(ZINC ID of Ligand)>
ZINC28958783

>  <Concatenate*(UniProt (SwissProt) Entry Name of Target Chain)>
DPP4_HUMAN

>  <Mean(Number of Protein Chains in Target (>1 implies a multichain complex))>
1

>  <Median(pIC50)>
7.14874165128092

>  <Journal>
Kow BioorgMedChemLett2007

>  <Activity Classes>
7.14874165128092

>  <Conformer_cresset>
2

>  <Similarity_cresset>
0.747

>  <Favorite_cresset>
false

>  <Activity (Median(pIC50))_cresset>
7.15

>  <LE (Median(pIC50))_cresset>
0.371

>  <LipE (Median(pIC50))_cresset>
4.5

>  <Tags_cresset>
test

>  <Confs_cresset>
9

>  <Conf#_cresset>
2

>  <Alns_cresset>
9

>  <MW_cresset>
380.4

>  <#Atoms_cresset>
27

>  <SlogP_cresset>
2.7

>  <TPSA_cresset>
78.7

>  <Flexibility_cresset>
4.9

>  <#RB_cresset>
6

>  <Rof5_cresset>
0

>  <Filename_cresset>
bindingdb_similar_1x70_processed.sdf

>  <Notes_cresset>
27

>  <Selected Alignment_cresset>
true

>  <Alignment Cluster Centre_cresset>
true

>  <_cresset_fieldpoints>
-5      40.561409      48.288162      36.738239     -7.1599
-5      46.316582      49.277046      38.236237     -5.0847
-5      45.643192      48.310905      35.812225     -3.9250
-5      33.000160      45.842884      35.764061     -2.7502
-5      47.355995      52.338596      33.344616     -3.9263
-6      41.802422      53.719555      32.871204     10.3364
-6      35.679447      50.585175      33.274483      5.2704
-6      37.552536      49.683578      32.753632      5.1780
-6      40.700085      54.256443      33.529728     10.2490
-6      51.733089      50.168766      34.942150      1.5376
-7      35.405636      50.350246      33.227158     -2.5527
-7      36.079292      49.116905      39.480198     -2.1485
-7      37.186272      49.349258      32.920792     -2.4103
-7      40.048904      48.006134      36.085381     -2.5287
-7      39.982357      54.436802      33.480232     -1.8438
-7      38.356926      54.583824      36.175999     -2.0581
-7      40.355503      50.271675      32.207375     -1.5299
-7      41.808411      53.660042      32.443062     -1.6277
-7      40.851185      52.581711      38.396587     -2.6220
-7      43.002403      49.785568      33.955639     -2.6190
-7      43.343822      56.153553      35.017689     -1.1075
-7      46.270126      49.133205      38.718243     -2.2285
-7      51.770664      50.067516      34.899612     -1.3765
-7      46.243038      54.165565      36.836639     -2.0199
-7      50.365692      47.763237      38.853794     -0.9216
-8      35.746994      49.824554      36.379040      7.2638
-8      39.500481      51.436787      35.940098      4.9599
-8      43.583595      52.051205      36.301556      2.5757
-8      43.461330      53.417850      34.853004      3.7302
-8      44.207924      50.853985      37.411396      2.8251
-8      48.571751      50.083393      36.359421      5.4335

$$$$
