@<TRIPOS>MOLECULE
bindingdb_similar_1x70_processed:18
 48 51 0 0 0
SMALL
GASTEIGER

@<TRIPOS>ATOM
      1 C          34.5001   49.2327   36.3353 C.ar    1  LIG1        0.1611
      2 C          34.6190   50.5671   36.6494 C.ar    1  LIG1        0.0119
      3 C          35.8619   51.1608   36.6932 C.ar    1  LIG1        0.1296
      4 C          36.9965   50.4203   36.4231 C.ar    1  LIG1       -0.0040
      5 C          36.8730   49.0826   36.1156 C.ar    1  LIG1       -0.0175
      6 C          35.6318   48.4873   36.0686 C.ar    1  LIG1        0.1588
      7 C          38.3822   51.0524   36.4526 C.3     1  LIG1        0.0187
      8 C          39.0875   51.1623   35.0809 C.3     1  LIG1       -0.0118
      9 C          40.4604   51.8539   35.2219 C.3     1  LIG1        0.0673
     10 N          38.2495   51.9589   34.1193 N.4     1  LIG1        0.2213
     11 C          41.4702   51.0609   36.0313 C.2     1  LIG1        0.2214
     12 N          42.6586   51.6758   36.2245 N.am    1  LIG1       -0.2922
     13 O          41.2012   49.9496   36.4678 O.2     1  LIG1       -0.2754
     14 C          43.0394   52.9820   35.6242 C.3     1  LIG1        0.0348
     15 C          44.2463   52.8081   34.6734 C.3     1  LIG1        0.0593
     16 C          43.6694   51.0186   37.0812 C.3     1  LIG1        0.0742
     17 C          45.0171   51.1404   36.4029 C.ar    1  LIG1        0.1452
     18 N          45.2311   51.9540   35.3477 N.ar    1  LIG1       -0.2459
     19 N          46.5310   51.8234   34.9854 N.ar    1  LIG1       -0.1544
     20 C          47.0459   50.9620   35.8178 C.ar    1  LIG1        0.1544
     21 N          46.1381   50.5175   36.7123 N.ar    1  LIG1       -0.2141
     22 F          35.9521   52.4628   37.0001 F       1  LIG1       -0.2051
     23 F          33.2862   48.6653   36.2891 F       1  LIG1       -0.2024
     24 F          35.5275   47.1863   35.7613 F       1  LIG1       -0.2025
     25 C          48.4909   50.5133   35.7835 C.3     1  LIG1        0.0208
     26 C          49.1795   50.2983   37.1399 C.3     1  LIG1       -0.0426
     27 C          48.7809   49.0891   36.2809 C.3     1  LIG1       -0.0426
     28 H          39.2463   50.0606   34.6326 H       1  LIG1        0.0858
     29 H          33.8011   51.1082   36.8449 H       1  LIG1        0.0676
     30 H          37.6908   48.5409   35.9210 H       1  LIG1        0.0651
     31 H          38.3279   52.1483   36.9387 H       1  LIG1        0.0369
     32 H          39.0577   50.3738   37.1745 H       1  LIG1        0.0369
     33 H          40.2627   52.9169   35.7424 H       1  LIG1        0.0414
     34 H          40.9006   52.0015   34.1151 H       1  LIG1        0.0414
     35 H          37.4298   51.5848   33.9918 H       1  LIG1        0.1997
     36 H          38.6350   52.0229   33.2975 H       1  LIG1        0.1997
     37 H          38.1095   52.8078   34.4154 H       1  LIG1        0.1997
     38 H          42.1928   53.5777   35.0226 H       1  LIG1        0.0483
     39 H          43.3972   53.6865   36.5273 H       1  LIG1        0.0483
     40 H          43.8854   52.2704   33.6631 H       1  LIG1        0.0525
     41 H          44.7263   53.8772   34.4156 H       1  LIG1        0.0525
     42 H          43.4078   49.8574   37.2315 H       1  LIG1        0.0545
     43 H          43.7061   51.5633   38.1499 H       1  LIG1        0.0545
     44 H          49.2063   50.8932   34.8982 H       1  LIG1        0.0380
     45 H          48.4964   50.4890   38.1080 H       1  LIG1        0.0272
     46 H          50.3538   50.5432   37.1717 H       1  LIG1        0.0272
     47 H          49.6854   48.5236   35.7311 H       1  LIG1        0.0272
     48 H          47.8284   48.4711   36.6690 H       1  LIG1        0.0272
@<TRIPOS>BOND
     1     1     2   ar
     2     1    23    1
     3     2     3   ar
     4     2    29    1
     5     3     4   ar
     6     3    22    1
     7     4     5   ar
     8     4     7    1
     9     5     6   ar
    10     5    30    1
    11     6     1   ar
    12     6    24    1
    13     7    31    1
    14     7    32    1
    15     8     7    1
    16     8     9    1
    17     8    10    1
    18     8    28    1
    19     9    11    1
    20     9    33    1
    21     9    34    1
    22    10    35    1
    23    10    36    1
    24    10    37    1
    25    11    12   am
    26    11    13    2
    27    12    14    1
    28    12    16    1
    29    14    15    1
    30    14    38    1
    31    14    39    1
    32    15    18    1
    33    15    40    1
    34    15    41    1
    35    16    42    1
    36    16    43    1
    37    17    16    1
    38    17    18   ar
    39    18    19   ar
    40    19    20   ar
    41    20    21   ar
    42    20    25    1
    43    21    17   ar
    44    25    27    1
    45    25    44    1
    46    26    25    1
    47    26    45    1
    48    26    46    1
    49    27    26    1
    50    27    47    1
    51    27    48    1
