@<TRIPOS>MOLECULE
bindingdb_similar_1x70_processed:12
 44 46 0 0 0
SMALL
GASTEIGER

@<TRIPOS>ATOM
      1 C          34.4258   49.4881   36.3953 C.ar    1  LIG1       -0.0434
      2 C          35.5025   48.6978   36.0591 C.ar    1  LIG1        0.0412
      3 C          36.7799   49.2058   36.1359 C.ar    1  LIG1       -0.0400
      4 C          36.9851   50.5065   36.5381 C.ar    1  LIG1       -0.0407
      5 C          35.9062   51.2934   36.8765 C.ar    1  LIG1       -0.0583
      6 C          34.6287   50.7857   36.8050 C.ar    1  LIG1       -0.0601
      7 C          38.3914   51.0815   36.5792 C.3     1  LIG1        0.0159
      8 C          39.0665   51.1899   35.1921 C.3     1  LIG1       -0.0119
      9 N          38.2178   52.0126   34.2606 N.4     1  LIG1        0.2213
     10 C          40.4540   51.8569   35.2932 C.3     1  LIG1        0.0673
     11 C          41.4754   51.0827   36.1047 C.2     1  LIG1        0.2214
     12 O          41.2123   49.9863   36.5813 O.2     1  LIG1       -0.2754
     13 N          42.6659   51.7046   36.2563 N.am    1  LIG1       -0.2923
     14 C          43.0419   52.9740   35.5816 C.3     1  LIG1        0.0332
     15 C          44.2539   52.7331   34.6537 C.3     1  LIG1        0.0422
     16 C          43.6802   51.1022   37.1469 C.3     1  LIG1        0.0746
     17 C          45.0466   51.2590   36.5125 C.ar    1  LIG1        0.1512
     18 N          45.2879   51.9980   35.3980 N.ar    1  LIG1       -0.3048
     19 C          46.6191   51.9048   35.1127 C.ar    1  LIG1        0.2376
     20 N          47.1502   51.1525   36.0294 N.ar    1  LIG1       -0.1250
     21 N          46.1735   50.7513   36.9017 N.ar    1  LIG1       -0.1324
     22 C          47.3564   52.5377   33.9448 C.3     1  LIG1        0.4524
     23 F          47.1981   53.9190   33.9174 F       1  LIG1       -0.1632
     24 F          46.8950   52.0382   32.7316 F       1  LIG1       -0.1632
     25 F          48.7223   52.2814   34.0039 F       1  LIG1       -0.1632
     26 CL         35.2511   47.0615   35.5275 Cl      1  LIG1       -0.0835
     27 H          33.4980   49.1197   36.3401 H       1  LIG1        0.0632
     28 H          37.5600   48.6320   35.8878 H       1  LIG1        0.0635
     29 H          36.0509   52.2382   37.1704 H       1  LIG1        0.0620
     30 H          33.8479   51.3605   37.0495 H       1  LIG1        0.0618
     31 H          38.3660   52.1768   37.0693 H       1  LIG1        0.0368
     32 H          39.0540   50.3704   37.2831 H       1  LIG1        0.0368
     33 H          39.1897   50.0893   34.7302 H       1  LIG1        0.0858
     34 H          37.3902   51.6507   34.1539 H       1  LIG1        0.1997
     35 H          38.5812   52.0800   33.4288 H       1  LIG1        0.1997
     36 H          38.0998   52.8589   34.5739 H       1  LIG1        0.1997
     37 H          40.2781   52.9352   35.7898 H       1  LIG1        0.0414
     38 H          40.8671   51.9633   34.1712 H       1  LIG1        0.0414
     39 H          42.1996   53.5249   34.9321 H       1  LIG1        0.0482
     40 H          43.3900   53.7387   36.4377 H       1  LIG1        0.0482
     41 H          43.9086   52.0772   33.7098 H       1  LIG1        0.0508
     42 H          44.6775   53.7890   34.2744 H       1  LIG1        0.0508
     43 H          43.4552   49.9345   37.3090 H       1  LIG1        0.0545
     44 H          43.6643   51.6638   38.2071 H       1  LIG1        0.0545
@<TRIPOS>BOND
     1     1     2   ar
     2     1    27    1
     3     2     3   ar
     4     2    26    1
     5     3     4   ar
     6     3    28    1
     7     4     5   ar
     8     4     7    1
     9     5     6   ar
    10     5    29    1
    11     6     1   ar
    12     6    30    1
    13     7    31    1
    14     7    32    1
    15     8     7    1
    16     8     9    1
    17     8    10    1
    18     8    33    1
    19     9    34    1
    20     9    35    1
    21     9    36    1
    22    10    11    1
    23    10    37    1
    24    10    38    1
    25    11    12    2
    26    11    13   am
    27    13    14    1
    28    13    16    1
    29    14    15    1
    30    14    39    1
    31    14    40    1
    32    15    18    1
    33    15    41    1
    34    15    42    1
    35    16    43    1
    36    16    44    1
    37    17    16    1
    38    17    18   ar
    39    18    19   ar
    40    19    20   ar
    41    19    22    1
    42    20    21   ar
    43    21    17   ar
    44    22    23    1
    45    22    24    1
    46    22    25    1
