@<TRIPOS>MOLECULE
bindingdb_similar_1x70_processed:23
 44 46 0 0 0
SMALL
GASTEIGER

@<TRIPOS>ATOM
      1 C          34.4624   49.2771   36.3204 C.ar    1  LIG1        0.1611
      2 C          34.6432   50.5940   36.6759 C.ar    1  LIG1        0.0119
      3 C          35.9124   51.1284   36.7356 C.ar    1  LIG1        0.1296
      4 C          37.0112   50.3445   36.4421 C.ar    1  LIG1       -0.0040
      5 C          36.8255   49.0239   36.0935 C.ar    1  LIG1       -0.0175
      6 C          35.5581   48.4887   36.0287 C.ar    1  LIG1        0.1588
      7 C          38.4241   50.9154   36.4846 C.3     1  LIG1        0.0187
      8 C          39.0985   51.0833   35.1034 C.3     1  LIG1       -0.0118
      9 N          38.2435   51.9398   34.2122 N.4     1  LIG1        0.2213
     10 C          40.4781   51.7632   35.2265 C.3     1  LIG1        0.0673
     11 C          41.5045   50.9763   36.0191 C.2     1  LIG1        0.2214
     12 O          41.2533   49.8635   36.4617 O.2     1  LIG1       -0.2754
     13 N          42.6866   51.6058   36.1956 N.am    1  LIG1       -0.2923
     14 C          43.0496   52.8986   35.5592 C.3     1  LIG1        0.0332
     15 C          44.2689   52.6978   34.6334 C.3     1  LIG1        0.0421
     16 C          43.6996   50.9812   37.0719 C.3     1  LIG1        0.0746
     17 C          45.0668   51.1739   36.4512 C.ar    1  LIG1        0.1511
     18 N          45.3043   51.9508   35.3616 N.ar    1  LIG1       -0.3075
     19 C          46.6369   51.8800   35.0780 C.ar    1  LIG1        0.1999
     20 N          47.1723   51.1037   35.9716 N.ar    1  LIG1       -0.1284
     21 N          46.1972   50.6644   36.8281 N.ar    1  LIG1       -0.1325
     22 F          35.3939   47.2043   35.6794 F       1  LIG1       -0.2025
     23 F          36.0639   52.4156   37.0798 F       1  LIG1       -0.2051
     24 C          47.3777   52.5553   33.9351 C.3     1  LIG1        0.2977
     25 F          33.2236   48.7678   36.2582 F       1  LIG1       -0.2024
     26 F          46.9149   52.0933   32.7056 F       1  LIG1       -0.2005
     27 F          47.1937   53.9354   33.9496 F       1  LIG1       -0.2005
     28 H          33.8512   51.1660   36.8895 H       1  LIG1        0.0676
     29 H          37.6171   48.4511   35.8807 H       1  LIG1        0.0651
     30 H          38.4296   51.9810   37.0378 H       1  LIG1        0.0369
     31 H          39.0912   50.1662   37.1427 H       1  LIG1        0.0369
     32 H          39.2318   50.0055   34.5929 H       1  LIG1        0.0858
     33 H          37.4315   51.5590   34.0707 H       1  LIG1        0.1997
     34 H          38.6222   52.0670   33.3963 H       1  LIG1        0.1997
     35 H          38.0998   52.7584   34.5794 H       1  LIG1        0.1997
     36 H          40.2948   52.8286   35.7486 H       1  LIG1        0.0414
     37 H          40.8950   51.9011   34.1091 H       1  LIG1        0.0414
     38 H          42.2076   53.4552   34.9149 H       1  LIG1        0.0482
     39 H          43.3819   53.6481   36.4352 H       1  LIG1        0.0482
     40 H          43.9383   52.0722   33.6641 H       1  LIG1        0.0508
     41 H          44.6871   53.7695   34.2947 H       1  LIG1        0.0508
     42 H          43.4858   49.8058   37.1845 H       1  LIG1        0.0545
     43 H          43.6685   51.4946   38.1560 H       1  LIG1        0.0545
     44 H          48.5491   52.3147   34.0298 H       1  LIG1        0.1105
@<TRIPOS>BOND
     1     1     2   ar
     2     1    25    1
     3     2     3   ar
     4     2    28    1
     5     3     4   ar
     6     3    23    1
     7     4     5   ar
     8     4     7    1
     9     5     6   ar
    10     5    29    1
    11     6     1   ar
    12     6    22    1
    13     7    30    1
    14     7    31    1
    15     8     7    1
    16     8     9    1
    17     8    10    1
    18     8    32    1
    19     9    33    1
    20     9    34    1
    21     9    35    1
    22    10    11    1
    23    10    36    1
    24    10    37    1
    25    11    12    2
    26    11    13   am
    27    13    14    1
    28    13    16    1
    29    14    15    1
    30    14    38    1
    31    14    39    1
    32    15    18    1
    33    15    40    1
    34    15    41    1
    35    16    42    1
    36    16    43    1
    37    17    16    1
    38    17    18   ar
    39    18    19   ar
    40    19    20   ar
    41    19    24    1
    42    20    21   ar
    43    21    17   ar
    44    24    26    1
    45    24    27    1
    46    24    44    1
