bindingdb_similar_1x70_processed:26
 OpenBabel04261912203D

 44 46  0  0  1  0  0  0  0  0999 V2000
   34.4598   49.2448   36.3298 C   0  0  0  0  0  0  0  0  0  0  0  0
   34.6118   50.5698   36.6688 C   0  0  0  0  0  0  0  0  0  0  0  0
   35.8687   51.1330   36.7188 C   0  0  0  0  0  0  0  0  0  0  0  0
   36.9840   50.3706   36.4301 C   0  0  0  0  0  0  0  0  0  0  0  0
   36.8273   49.0422   36.0986 C   0  0  0  0  0  0  0  0  0  0  0  0
   35.5723   48.4778   36.0448 C   0  0  0  0  0  0  0  0  0  0  0  0
   38.3850   50.9681   36.4576 C   0  0  0  0  0  0  0  0  0  0  0  0
   39.0607   51.1016   35.0731 C   0  0  2  0  0  0  0  0  0  0  0  0
   40.4456   51.7722   35.1915 C   0  0  0  0  0  0  0  0  0  0  0  0
   38.2128   51.9293   34.1468 N   0  3  0  0  0  0  0  0  0  0  0  0
   41.4655   50.9576   35.9644 C   0  0  0  0  0  0  0  0  0  0  0  0
   42.6633   51.5598   36.1405 N   0  0  0  0  0  0  0  0  0  0  0  0
   41.1942   49.8429   36.3908 O   0  0  0  0  0  0  0  0  0  0  0  0
   43.0323   52.8766   35.5534 C   0  0  0  0  0  0  0  0  0  0  0  0
   44.2716   52.7470   34.6393 C   0  0  0  0  0  0  0  0  0  0  0  0
   43.6748   50.8844   36.9841 C   0  0  0  0  0  0  0  0  0  0  0  0
   45.0562   51.1454   36.4206 C   0  0  0  0  0  0  0  0  0  0  0  0
   45.2762   51.9847   35.3877 N   0  0  0  0  0  0  0  0  0  0  0  0
   46.6093   51.9966   35.1432 N   0  0  0  0  0  0  0  0  0  0  0  0
   47.1378   51.1868   36.0186 C   0  0  0  0  0  0  0  0  0  0  0  0
   46.2051   50.6418   36.8288 N   0  0  0  0  0  0  0  0  0  0  0  0
   35.9911   52.4273   37.0479 F   0  0  0  0  0  0  0  0  0  0  0  0
   33.2325   48.7072   36.2768 F   0  0  0  0  0  0  0  0  0  0  0  0
   35.4364   47.1861   35.7118 F   0  0  0  0  0  0  0  0  0  0  0  0
   48.6230   50.9027   36.1241 C   0  0  0  0  0  0  0  0  0  0  0  0
   48.8668   49.6380   36.6487 F   0  0  0  0  0  0  0  0  0  0  0  0
   49.2470   50.9661   34.8829 F   0  0  0  0  0  0  0  0  0  0  0  0
   49.2471   51.8269   36.9541 F   0  0  0  0  0  0  0  0  0  0  0  0
   39.1941   50.0077   34.5982 H   0  0  0  0  0  0  0  0  0  0  0  0
   33.8076   51.1264   36.8774 H   0  0  0  0  0  0  0  0  0  0  0  0
   37.6311   48.4851   35.8898 H   0  0  0  0  0  0  0  0  0  0  0  0
   38.3655   52.0498   36.9770 H   0  0  0  0  0  0  0  0  0  0  0  0
   39.0585   50.2524   37.1452 H   0  0  0  0  0  0  0  0  0  0  0  0
   40.2772   52.8318   35.7289 H   0  0  0  0  0  0  0  0  0  0  0  0
   40.8560   51.9224   34.0736 H   0  0  0  0  0  0  0  0  0  0  0  0
   37.3826   51.5736   34.0368 H   0  0  0  0  0  0  0  0  0  0  0  0
   38.5764   51.9964   33.3154 H   0  0  0  0  0  0  0  0  0  0  0  0
   38.0974   52.7772   34.4568 H   0  0  0  0  0  0  0  0  0  0  0  0
   42.1937   53.4519   34.9217 H   0  0  0  0  0  0  0  0  0  0  0  0
   43.3410   53.5892   36.4682 H   0  0  0  0  0  0  0  0  0  0  0  0
   43.9766   52.1477   33.6422 H   0  0  0  0  0  0  0  0  0  0  0  0
   44.6939   53.8333   34.3539 H   0  0  0  0  0  0  0  0  0  0  0  0
   43.4786   49.7008   36.9988 H   0  0  0  0  0  0  0  0  0  0  0  0
   43.6116   51.3122   38.1035 H   0  0  0  0  0  0  0  0  0  0  0  0
  1  2  2  0  0  0  0
  1 23  1  0  0  0  0
  2  3  1  0  0  0  0
  2 30  1  0  0  0  0
  3  4  2  0  0  0  0
  3 22  1  0  0  0  0
  4  5  1  0  0  0  0
  4  7  1  0  0  0  0
  5  6  2  0  0  0  0
  5 31  1  0  0  0  0
  6  1  1  0  0  0  0
  6 24  1  0  0  0  0
  7 32  1  0  0  0  0
  7 33  1  0  0  0  0
  8  7  1  0  0  0  0
  8  9  1  0  0  0  0
  8 10  1  0  0  0  0
  8 29  1  6  0  0  0
  9 11  1  0  0  0  0
  9 34  1  0  0  0  0
  9 35  1  0  0  0  0
 10 36  1  0  0  0  0
 10 37  1  0  0  0  0
 10 38  1  0  0  0  0
 11 12  1  0  0  0  0
 11 13  2  0  0  0  0
 12 14  1  0  0  0  0
 12 16  1  0  0  0  0
 14 15  1  0  0  0  0
 14 39  1  0  0  0  0
 14 40  1  0  0  0  0
 15 18  1  0  0  0  0
 15 41  1  0  0  0  0
 15 42  1  0  0  0  0
 16 43  1  0  0  0  0
 16 44  1  0  0  0  0
 17 16  1  0  0  0  0
 17 18  1  0  0  0  0
 18 19  1  0  0  0  0
 19 20  2  0  0  0  0
 20 21  1  0  0  0  0
 20 25  1  0  0  0  0
 21 17  2  0  0  0  0
 25 26  1  0  0  0  0
 25 27  1  0  0  0  0
 25 28  1  0  0  0  0
M  CHG  1  10   1
M  END
>  <Mean(IC50 fixed2)>
59

>  <First(BindingDB Ligand Name)>
CHEMBL399499

>  <Concatenate(Target Name Assigned by Curator or DataSource)>
Dipeptidyl Peptidase IV (DPP-IV)

>  <First(Target Source Organism According to Curator or DataSource)>
Homo sapiens

>  <First(Curation/DataSource)>
ChEMBL

>  <First(Article DOI)>
10.1016/j.bmcl.2007.07.100

>  <Mean(PMID)>
17827003

>  <First(Authors)>
Kowalchick, JE; Leiting, B; Pryor, KD; Marsilio, F; Wu, JK; He, H; Lyons, KA; Eiermann, GJ; Petrov, A; Scapin, G; Patel, RA; Thornberry, NA; Weber, AE; Kim, D

>  <First(Institution)>
Merck Research Laboratories<span class=m1fontSize>Curated by</span> <a href=http://www.ebi.ac.uk/chembl/>ChEMBL</a>

>  <First(Link to Ligand in BindingDB)>
http://www.bindingdb.org/bind/chemsearch/marvin/MolStructure.jsp?monomerid=50221447

>  <First(Link to Ligand-Target Pair in BindingDB)>
http://www.bindingdb.org/jsp/dbsearch/PrimarySearch_ki.jsp?energyterm=kJ/mole&tag=r21&monomerid=50221447&enzyme=Dipeptidyl+Peptidase+IV+%28DPP-IV%29&column=ki&startPg=0&Increment=50&submit=Search

>  <Mean(PubChem CID)>
9953181

>  <Mean(PubChem SID)>
104094104

>  <First(ZINC ID of Ligand)>
ZINC13982513

>  <Concatenate*(UniProt (SwissProt) Entry Name of Target Chain)>
DPP4_HUMAN

>  <Mean(Number of Protein Chains in Target (>1 implies a multichain complex))>
1

>  <Median(pIC50)>
7.22914798835786

>  <Journal>
Kow BioorgMedChemLett2007

>  <Activity Classes>
7.22914798835786

>  <Conformer_cresset>
2

>  <Similarity_cresset>
0.756

>  <Favorite_cresset>
false

>  <Activity (Median(pIC50))_cresset>
7.23

>  <LE (Median(pIC50))_cresset>
0.361

>  <LipE (Median(pIC50))_cresset>
4.4

>  <Tags_cresset>
training

>  <Confs_cresset>
4

>  <Conf#_cresset>
2

>  <Alns_cresset>
4

>  <MW_cresset>
408.3

>  <#Atoms_cresset>
28

>  <SlogP_cresset>
2.8

>  <TPSA_cresset>
78.7

>  <Flexibility_cresset>
4.9

>  <#RB_cresset>
6

>  <Rof5_cresset>
0

>  <Filename_cresset>
bindingdb_similar_1x70_processed.sdf

>  <Notes_cresset>
25

>  <Selected Alignment_cresset>
true

>  <Alignment Cluster Centre_cresset>
true

>  <_cresset_fieldpoints>
-5      40.505390      48.194473      36.645645     -6.5405
-5      46.502357      49.188419      38.225468     -3.8515
-5      47.468384      52.860958      33.587280     -2.1987
-5      32.871891      45.901581      35.705444     -2.5840
-5      50.587818      50.039009      39.084698     -1.7808
-5      51.973942      49.933147      36.391354     -1.6741
-5      50.841671      48.323505      34.774239     -1.7660
-6      41.917847      53.502838      32.750278     10.8355
-6      35.649464      50.579060      33.282612      5.5284
-6      35.576534      53.133907      34.099724      4.8354
-6      40.631580      54.195347      33.539360     10.6787
-7      36.041084      49.029545      39.465126     -2.1454
-7      37.089108      49.378387      32.904541     -2.4308
-7      40.906815      52.458805      38.363491     -2.6500
-7      40.212261      50.238449      32.144268     -1.5208
-7      43.036674      49.699448      33.909130     -2.5756
-7      39.961731      54.384228      33.490776     -1.8475
-7      38.422348      54.508156      36.257534     -2.0652
-7      43.260704      56.062962      34.996784     -1.1157
-7      46.271904      50.793491      32.941402     -1.9988
-7      35.362682      50.370831      33.232464     -2.5522
-7      52.163757      50.248035      36.393471     -1.1026
-7      39.995380      47.920803      35.990940     -2.5309
-7      46.770592      50.456913      39.247002     -1.8371
-7      41.898651      53.416561      32.319481     -1.6109
-7      46.234169      54.291470      36.710373     -2.1994
-8      35.718422      49.804390      36.380981      7.2643
-8      39.495590      51.354752      35.923729      4.9491
-8      43.456188      53.321053      34.783337      3.7213
-8      44.191059      50.685059      37.312408      2.8180
-8      36.985588      51.210003      36.636829      5.6080
-8      48.723225      50.884254      36.136269      5.5950

$$$$
