@<TRIPOS>MOLECULE
bindingdb_similar_1x70_processed:19
 48 51 0 0 0
SMALL
GASTEIGER

@<TRIPOS>ATOM
      1 C          34.4444   49.2630   36.3132 C.ar    1  LIG1        0.1611
      2 C          34.6245   50.5808   36.6663 C.ar    1  LIG1        0.0119
      3 C          35.8929   51.1167   36.7228 C.ar    1  LIG1        0.1296
      4 C          36.9922   50.3335   36.4285 C.ar    1  LIG1       -0.0040
      5 C          36.8074   49.0122   36.0822 C.ar    1  LIG1       -0.0175
      6 C          35.5406   48.4754   36.0206 C.ar    1  LIG1        0.1588
      7 C          38.4042   50.9061   36.4673 C.3     1  LIG1        0.0187
      8 C          39.0761   51.0732   35.0843 C.3     1  LIG1       -0.0118
      9 N          38.2183   51.9272   34.1940 N.4     1  LIG1        0.2213
     10 C          40.4561   51.7539   35.2042 C.3     1  LIG1        0.0673
     11 C          41.4842   50.9695   35.9960 C.2     1  LIG1        0.2214
     12 O          41.2348   49.8573   36.4404 O.2     1  LIG1       -0.2754
     13 N          42.6655   51.6009   36.1689 N.am    1  LIG1       -0.2923
     14 C          43.0258   52.8932   35.5297 C.3     1  LIG1        0.0332
     15 C          44.2450   52.6955   34.6031 C.3     1  LIG1        0.0419
     16 C          43.6814   50.9796   37.0438 C.3     1  LIG1        0.0746
     17 C          45.0471   51.1727   36.4197 C.ar    1  LIG1        0.1510
     18 N          45.2821   51.9475   35.3283 N.ar    1  LIG1       -0.3118
     19 C          46.6133   51.8761   35.0443 C.ar    1  LIG1        0.1367
     20 N          47.1522   51.1030   35.9377 N.ar    1  LIG1       -0.1340
     21 N          46.1784   50.6647   36.7963 N.ar    1  LIG1       -0.1327
     22 F          35.3770   47.1904   35.6736 F       1  LIG1       -0.2025
     23 F          36.0437   52.4047   37.0646 F       1  LIG1       -0.2051
     24 C          47.3444   52.5583   33.9044 C.3     1  LIG1        0.0192
     25 F          33.2061   48.7522   36.2542 F       1  LIG1       -0.2024
     26 C          48.7956   52.9758   34.1840 C.3     1  LIG1       -0.0427
     27 C          48.5047   51.7836   33.2611 C.3     1  LIG1       -0.0427
     28 H          33.8321   51.1521   36.8804 H       1  LIG1        0.0676
     29 H          37.5992   48.4399   35.8687 H       1  LIG1        0.0651
     30 H          38.4087   51.9725   37.0194 H       1  LIG1        0.0369
     31 H          39.0734   50.1583   37.1258 H       1  LIG1        0.0369
     32 H          39.2074   49.9940   34.5744 H       1  LIG1        0.0858
     33 H          37.4007   51.5539   34.0683 H       1  LIG1        0.1997
     34 H          38.5868   52.0388   33.3717 H       1  LIG1        0.1997
     35 H          38.0864   52.7523   34.5504 H       1  LIG1        0.1997
     36 H          40.2724   52.8197   35.7254 H       1  LIG1        0.0414
     37 H          40.8685   51.8927   34.0852 H       1  LIG1        0.0414
     38 H          42.1818   53.4476   34.8864 H       1  LIG1        0.0482
     39 H          43.3583   53.6443   36.4040 H       1  LIG1        0.0482
     40 H          43.9150   52.0729   33.6315 H       1  LIG1        0.0508
     41 H          44.6604   53.7707   34.2724 H       1  LIG1        0.0508
     42 H          43.4690   49.8043   37.1588 H       1  LIG1        0.0545
     43 H          43.6515   51.4941   38.1271 H       1  LIG1        0.0545
     44 H          46.7497   53.2854   33.1585 H       1  LIG1        0.0379
     45 H          49.1668   53.9742   33.6310 H       1  LIG1        0.0272
     46 H          49.2311   52.6833   35.2631 H       1  LIG1        0.0272
     47 H          48.6971   51.9868   32.0943 H       1  LIG1        0.0272
     48 H          48.7330   50.7030   33.7299 H       1  LIG1        0.0272
@<TRIPOS>BOND
     1     1     2   ar
     2     1    25    1
     3     2     3   ar
     4     2    28    1
     5     3     4   ar
     6     3    23    1
     7     4     5   ar
     8     4     7    1
     9     5     6   ar
    10     5    29    1
    11     6     1   ar
    12     6    22    1
    13     7    30    1
    14     7    31    1
    15     8     7    1
    16     8     9    1
    17     8    10    1
    18     8    32    1
    19     9    33    1
    20     9    34    1
    21     9    35    1
    22    10    11    1
    23    10    36    1
    24    10    37    1
    25    11    12    2
    26    11    13   am
    27    13    14    1
    28    13    16    1
    29    14    15    1
    30    14    38    1
    31    14    39    1
    32    15    18    1
    33    15    40    1
    34    15    41    1
    35    16    42    1
    36    16    43    1
    37    17    16    1
    38    17    18   ar
    39    18    19   ar
    40    19    20   ar
    41    19    24    1
    42    20    21   ar
    43    21    17   ar
    44    24    27    1
    45    24    44    1
    46    26    24    1
    47    26    45    1
    48    26    46    1
    49    27    26    1
    50    27    47    1
    51    27    48    1
