@<TRIPOS>MOLECULE
bindingdb_similar_1x70_processed:31
 44 46 0 0 0
SMALL
GASTEIGER

@<TRIPOS>ATOM
      1 C          34.4486   49.2354   36.4102 C.ar    1  LIG1        0.0788
      2 C          34.6271   50.5586   36.7427 C.ar    1  LIG1       -0.0050
      3 C          35.8886   51.1135   36.7290 C.ar    1  LIG1        0.1283
      4 C          36.9850   50.3426   36.3956 C.ar    1  LIG1       -0.0041
      5 C          36.8000   49.0204   36.0578 C.ar    1  LIG1       -0.0189
      6 C          35.5381   48.4659   36.0517 C.ar    1  LIG1        0.1421
      7 C          38.3935   50.9234   36.4019 C.3     1  LIG1        0.0187
      8 C          39.0759   51.0881   35.0251 C.3     1  LIG1       -0.0118
      9 N          38.2241   51.9535   34.1383 N.4     1  LIG1        0.2213
     10 C          40.4596   51.7593   35.1721 C.3     1  LIG1        0.0673
     11 C          41.4781   50.9724   35.9785 C.2     1  LIG1        0.2214
     12 O          41.2210   49.8608   36.4213 O.2     1  LIG1       -0.2754
     13 N          42.6605   51.6000   36.1683 N.am    1  LIG1       -0.2923
     14 C          43.0314   52.8993   35.5514 C.3     1  LIG1        0.0332
     15 C          44.2463   52.7026   34.6176 C.3     1  LIG1        0.0422
     16 C          43.6757   50.9725   37.0421 C.3     1  LIG1        0.0746
     17 C          45.0448   51.1625   36.4192 C.ar    1  LIG1        0.1512
     18 N          45.2839   51.9463   35.3347 N.ar    1  LIG1       -0.3048
     19 C          46.6163   51.8747   35.0502 C.ar    1  LIG1        0.2376
     20 N          47.1507   51.0912   35.9380 N.ar    1  LIG1       -0.1250
     21 N          46.1750   50.6481   36.7911 N.ar    1  LIG1       -0.1324
     22 C          47.3521   52.5595   33.9106 C.3     1  LIG1        0.4524
     23 F          48.7193   52.3109   33.9639 F       1  LIG1       -0.1632
     24 F          46.8983   52.1051   32.6773 F       1  LIG1       -0.1632
     25 F          47.1841   53.9398   33.9372 F       1  LIG1       -0.1632
     26 F          36.0362   52.4078   37.0444 F       1  LIG1       -0.2052
     27 F          35.3830   47.1819   35.6918 F       1  LIG1       -0.2040
     28 CL         32.8464   48.5526   36.4454 Cl      1  LIG1       -0.0805
     29 H          33.8390   51.1194   36.9951 H       1  LIG1        0.0662
     30 H          37.5901   48.4573   35.8115 H       1  LIG1        0.0650
     31 H          38.3958   51.9932   36.9451 H       1  LIG1        0.0369
     32 H          39.0684   50.1893   37.0688 H       1  LIG1        0.0369
     33 H          39.2056   50.0128   34.5076 H       1  LIG1        0.0858
     34 H          37.3997   51.5923   34.0078 H       1  LIG1        0.1997
     35 H          38.5896   52.0692   33.3139 H       1  LIG1        0.1997
     36 H          38.0989   52.7806   34.4964 H       1  LIG1        0.1997
     37 H          40.2701   52.8207   35.6984 H       1  LIG1        0.0414
     38 H          40.8878   51.9109   34.0614 H       1  LIG1        0.0414
     39 H          42.1882   53.4741   34.9253 H       1  LIG1        0.0482
     40 H          43.3764   53.6267   36.4411 H       1  LIG1        0.0482
     41 H          43.9065   52.0810   33.6490 H       1  LIG1        0.0508
     42 H          44.6633   53.7753   34.2808 H       1  LIG1        0.0508
     43 H          43.4600   49.7979   37.1627 H       1  LIG1        0.0545
     44 H          43.6527   51.4946   38.1225 H       1  LIG1        0.0545
@<TRIPOS>BOND
     1     1     2   ar
     2     1    28    1
     3     2     3   ar
     4     2    29    1
     5     3     4   ar
     6     3    26    1
     7     4     5   ar
     8     4     7    1
     9     5     6   ar
    10     5    30    1
    11     6     1   ar
    12     6    27    1
    13     7    31    1
    14     7    32    1
    15     8     7    1
    16     8     9    1
    17     8    10    1
    18     8    33    1
    19     9    34    1
    20     9    35    1
    21     9    36    1
    22    10    11    1
    23    10    37    1
    24    10    38    1
    25    11    12    2
    26    11    13   am
    27    13    14    1
    28    13    16    1
    29    14    15    1
    30    14    39    1
    31    14    40    1
    32    15    18    1
    33    15    41    1
    34    15    42    1
    35    16    43    1
    36    16    44    1
    37    17    16    1
    38    17    18   ar
    39    18    19   ar
    40    19    20   ar
    41    19    22    1
    42    20    21   ar
    43    21    17   ar
    44    22    23    1
    45    22    24    1
    46    22    25    1
