RR  bindingdb_similar_1x70_processed:67
 OpenBabel04261912203D

 57 60  0  0  1  0  0  0  0  0999 V2000
   34.4448   49.2631   36.3130 C   0  0  0  0  0  0  0  0  0  0  0  0
   34.6248   50.5806   36.6669 C   0  0  0  0  0  0  0  0  0  0  0  0
   35.8934   51.1165   36.7235 C   0  0  0  0  0  0  0  0  0  0  0  0
   36.9925   50.3335   36.4283 C   0  0  0  0  0  0  0  0  0  0  0  0
   36.8078   49.0122   36.0820 C   0  0  0  0  0  0  0  0  0  0  0  0
   35.5408   48.4756   36.0201 C   0  0  0  0  0  0  0  0  0  0  0  0
   35.3775   47.1907   35.6725 F   0  0  0  0  0  0  0  0  0  0  0  0
   33.2065   48.7523   36.2536 F   0  0  0  0  0  0  0  0  0  0  0  0
   36.0442   52.4043   37.0659 F   0  0  0  0  0  0  0  0  0  0  0  0
   38.4037   50.9068   36.4676 C   0  0  0  0  0  0  0  0  0  0  0  0
   39.0774   51.0737   35.0867 C   0  0  2  0  0  0  0  0  0  0  0  0
   40.4571   51.7540   35.2042 C   0  0  0  0  0  0  0  0  0  0  0  0
   38.2203   51.9271   34.1960 N   0  3  0  0  0  0  0  0  0  0  0  0
   41.4854   50.9711   35.9956 C   0  0  0  0  0  0  0  0  0  0  0  0
   42.6683   51.6023   36.1683 N   0  0  0  0  0  0  0  0  0  0  0  0
   43.0244   52.8950   35.5246 C   0  0  0  0  0  0  0  0  0  0  0  0
   44.2448   52.6922   34.6018 C   0  0  0  0  0  0  0  0  0  0  0  0
   43.6794   50.9721   37.0490 C   0  0  1  0  0  0  0  0  0  0  0  0
   46.1783   50.6652   36.7968 N   0  0  0  0  0  0  0  0  0  0  0  0
   45.0458   51.1735   36.4238 C   0  0  0  0  0  0  0  0  0  0  0  0
   45.2816   51.9482   35.3315 N   0  0  0  0  0  0  0  0  0  0  0  0
   46.6138   51.8782   35.0454 C   0  0  0  0  0  0  0  0  0  0  0  0
   47.1518   51.1036   35.9386 N   0  0  0  0  0  0  0  0  0  0  0  0
   47.3430   52.5561   33.8971 C   0  0  0  0  0  0  0  0  0  0  0  0
   46.8875   52.0887   32.6688 F   0  0  0  0  0  0  0  0  0  0  0  0
   47.1662   53.9355   33.9113 F   0  0  0  0  0  0  0  0  0  0  0  0
   48.7121   52.3171   33.9472 F   0  0  0  0  0  0  0  0  0  0  0  0
   41.2356   49.8586   36.4402 O   0  0  0  0  0  0  0  0  0  0  0  0
   43.6190   51.4751   38.5083 C   0  0  0  0  0  0  0  0  0  0  0  0
   42.3132   51.1861   39.2352 C   0  0  0  0  0  0  0  0  0  0  0  0
   42.2065   50.0928   40.0676 C   0  0  0  0  0  0  0  0  0  0  0  0
   41.0240   49.8292   40.7199 C   0  0  0  0  0  0  0  0  0  0  0  0
   39.9383   50.6592   40.5417 C   0  0  0  0  0  0  0  0  0  0  0  0
   40.0418   51.7553   39.7135 C   0  0  0  0  0  0  0  0  0  0  0  0
   41.2264   52.0172   39.0656 C   0  0  0  0  0  0  0  0  0  0  0  0
   38.7839   50.4020   41.1723 F   0  0  0  0  0  0  0  0  0  0  0  0
   33.8326   51.1517   36.8814 H   0  0  0  0  0  0  0  0  0  0  0  0
   37.5995   48.4399   35.8690 H   0  0  0  0  0  0  0  0  0  0  0  0
   38.4116   51.9716   37.0204 H   0  0  0  0  0  0  0  0  0  0  0  0
   39.0745   50.1597   37.1222 H   0  0  0  0  0  0  0  0  0  0  0  0
   39.2055   49.9970   34.5733 H   0  0  0  0  0  0  0  0  0  0  0  0
   40.2723   52.8199   35.7236 H   0  0  0  0  0  0  0  0  0  0  0  0
   40.8667   51.8902   34.0841 H   0  0  0  0  0  0  0  0  0  0  0  0
   37.3908   51.5672   34.0885 H   0  0  0  0  0  0  0  0  0  0  0  0
   38.5806   52.0161   33.3641 H   0  0  0  0  0  0  0  0  0  0  0  0
   38.1110   52.7635   34.5413 H   0  0  0  0  0  0  0  0  0  0  0  0
   42.1803   53.4405   34.8744 H   0  0  0  0  0  0  0  0  0  0  0  0
   43.3507   53.6612   36.3877 H   0  0  0  0  0  0  0  0  0  0  0  0
   44.6611   53.7643   34.2624 H   0  0  0  0  0  0  0  0  0  0  0  0
   43.9125   52.0657   33.6334 H   0  0  0  0  0  0  0  0  0  0  0  0
   43.4790   49.7893   37.0708 H   0  0  0  0  0  0  0  0  0  0  0  0
   44.5187   50.9544   39.1093 H   0  0  0  0  0  0  0  0  0  0  0  0
   43.8180   52.6584   38.5216 H   0  0  0  0  0  0  0  0  0  0  0  0
   42.9922   49.4879   40.1976 H   0  0  0  0  0  0  0  0  0  0  0  0
   40.9521   49.0346   41.3227 H   0  0  0  0  0  0  0  0  0  0  0  0
   39.2560   52.3601   39.5834 H   0  0  0  0  0  0  0  0  0  0  0  0
   41.2990   52.8136   38.4651 H   0  0  0  0  0  0  0  0  0  0  0  0
  1  2  2  0  0  0  0
  1  8  1  0  0  0  0
  2  3  1  0  0  0  0
  2 37  1  0  0  0  0
  3  4  2  0  0  0  0
  3  9  1  0  0  0  0
  4  5  1  0  0  0  0
  4 10  1  0  0  0  0
  5  6  2  0  0  0  0
  5 38  1  0  0  0  0
  6  1  1  0  0  0  0
  6  7  1  0  0  0  0
 10 39  1  0  0  0  0
 10 40  1  0  0  0  0
 11 10  1  0  0  0  0
 11 12  1  0  0  0  0
 11 13  1  0  0  0  0
 11 41  1  6  0  0  0
 12 14  1  0  0  0  0
 12 42  1  0  0  0  0
 12 43  1  0  0  0  0
 13 44  1  0  0  0  0
 13 45  1  0  0  0  0
 13 46  1  0  0  0  0
 14 15  1  0  0  0  0
 14 28  2  0  0  0  0
 15 16  1  0  0  0  0
 16 17  1  0  0  0  0
 16 47  1  0  0  0  0
 16 48  1  0  0  0  0
 17 21  1  0  0  0  0
 17 49  1  0  0  0  0
 17 50  1  0  0  0  0
 18 15  1  0  0  0  0
 18 20  1  0  0  0  0
 18 29  1  0  0  0  0
 18 51  1  1  0  0  0
 19 20  2  0  0  0  0
 20 21  1  0  0  0  0
 21 22  1  0  0  0  0
 22 23  2  0  0  0  0
 22 24  1  0  0  0  0
 23 19  1  0  0  0  0
 24 25  1  0  0  0  0
 24 26  1  0  0  0  0
 24 27  1  0  0  0  0
 29 30  1  0  0  0  0
 29 52  1  0  0  0  0
 29 53  1  0  0  0  0
 30 31  2  0  0  0  0
 31 32  1  0  0  0  0
 31 54  1  0  0  0  0
 32 33  2  0  0  0  0
 32 55  1  0  0  0  0
 33 34  1  0  0  0  0
 33 36  1  0  0  0  0
 34 35  2  0  0  0  0
 34 56  1  0  0  0  0
 35 30  1  0  0  0  0
 35 57  1  0  0  0  0
M  CHG  1  13   1
M  END
>  <Mean(IC50 fixed2)>
58.09

>  <First(BindingDB Ligand Name)>
CHEMBL559371

>  <Concatenate(Target Name Assigned by Curator or DataSource)>
Dipeptidyl Peptidase IV (DPP-IV), Dipeptidyl Peptidase IV (DPP-IV)

>  <First(Target Source Organism According to Curator or DataSource)>
Homo sapiens

>  <First(Curation/DataSource)>
ChEMBL

>  <First(Article DOI)>
10.1021/jm070330v

>  <Mean(PMID)>
18201067

>  <First(Authors)>
Kim, D; Kowalchick, JE; Brockunier, LL; Parmee, ER; Eiermann, GJ; Fisher, MH; He, H; Leiting, B; Lyons, K; Scapin, G; Patel, SB; Petrov, A; Pryor, KD; Roy, RS; Wu, JK; Zhang, X; Wyvratt, MJ; Zhang, BB; Zhu, L; Thornberry, NA; Weber, AE

>  <First(Institution)>
Merck Research Laboratories<span class=m1fontSize>Curated by</span> <a href=http://www.ebi.ac.uk/chembl/>ChEMBL</a>

>  <First(Link to Ligand in BindingDB)>
http://www.bindingdb.org/bind/chemsearch/marvin/MolStructure.jsp?monomerid=50232512

>  <First(Link to Ligand-Target Pair in BindingDB)>
http://www.bindingdb.org/jsp/dbsearch/PrimarySearch_ki.jsp?energyterm=kJ/mole&tag=r21&monomerid=50232512&enzyme=Dipeptidyl+Peptidase+IV+%28DPP-IV%29&column=ki&startPg=0&Increment=50&submit=Search

>  <Mean(PubChem CID)>
34610999.5

>  <Mean(PubChem SID)>
132452940

>  <First(ZINC ID of Ligand)>
ZINC28967968

>  <Concatenate*(UniProt (SwissProt) Entry Name of Target Chain)>
DPP4_HUMAN, DPP4_HUMAN

>  <Mean(Number of Protein Chains in Target (>1 implies a multichain complex))>
1

>  <Median(pIC50)>
9.745

>  <Journal>
JMedChem2008

>  <Activity Classes>
9.745

>  <Conformer_cresset>
1

>  <Similarity_cresset>
0.998

>  <Favorite_cresset>
false

>  <Activity (Median(pIC50))_cresset>
9.74

>  <LE (Median(pIC50))_cresset>
0.379

>  <LipE (Median(pIC50))_cresset>
4.7

>  <Tags_cresset>
training

>  <Confs_cresset>
2

>  <Conf#_cresset>
1

>  <Alns_cresset>
2

>  <MW_cresset>
516.4

>  <#Atoms_cresset>
36

>  <SlogP_cresset>
5

>  <TPSA_cresset>
78.7

>  <Flexibility_cresset>
6.9

>  <#RB_cresset>
8

>  <Rof5_cresset>
2

>  <Filename_cresset>
bindingdb_similar_1x70_processed.sdf

>  <Notes_cresset>
46b (R) X-ray

>  <Selected Alignment_cresset>
true

>  <Alignment Cluster Centre_cresset>
true

>  <_cresset_fieldpoints>
-5      40.999302      48.536594      37.653854     -9.7538
-5      32.795879      45.950294      35.708439     -2.8191
-5      47.850266      49.883595      37.164627    -11.5679
-5      42.090664      52.332474      42.341766     -2.0118
-5      38.204399      47.895557      42.455166     -1.3206
-6      41.122528      54.648479      36.731655     11.0754
-6      35.678570      50.595295      33.260048      5.4586
-6      45.025475      49.191536      40.828835      2.3255
-6      43.090912      47.740082      41.834549      2.4626
-6      42.048492      53.434956      32.691383     12.0516
-7      37.070271      49.412048      32.895878     -2.4339
-7      36.380833      49.085323      39.447399     -2.7446
-7      35.377087      50.399727      33.225163     -2.5526
-7      36.758804      52.591248      40.076805     -1.9509
-7      39.960453      54.372627      33.515533     -1.8927
-7      40.174877      50.293339      32.109013     -1.5189
-7      41.934666      53.311760      32.262539     -1.6955
-7      44.525608      54.123821      31.674829     -1.5867
-7      40.918903      54.752159      37.160149     -2.3851
-7      42.556271      54.943260      38.389027     -2.0366
-7      44.869438      48.358147      38.794338     -2.0735
-7      49.056694      54.148163      31.147194     -1.1104
-7      45.712166      54.299503      37.188293     -2.6902
-7      47.253780      48.712673      35.616669     -1.5256
-7      42.180450      52.746944      42.328465     -1.9255
-7      40.358231      48.259167      37.835510     -3.3726
-7      43.123505      49.610657      34.049332     -2.8166
-7      39.198448      54.241947      37.500057     -2.6890
-8      35.714211      49.795422      36.371300      7.2686
-8      39.522850      51.322731      35.955441      4.9900
-8      41.117947      50.922329      39.888821      7.2241
-8      43.465107      53.290810      34.743584      3.8119
-8      47.360397      52.600792      33.828445      5.6579

$$$$
