@<TRIPOS>MOLECULE
bindingdb_similar_1x70_processed:13
 47 49 0 0 0
SMALL
GASTEIGER

@<TRIPOS>ATOM
      1 C          34.4446   49.2630   36.3130 C.ar    1  LIG1        0.1611
      2 C          35.5405   48.4753   36.0200 C.ar    1  LIG1        0.1588
      3 C          36.8073   49.0122   36.0819 C.ar    1  LIG1       -0.0175
      4 C          36.9922   50.3334   36.4280 C.ar    1  LIG1       -0.0040
      5 C          35.8931   51.1165   36.7230 C.ar    1  LIG1        0.1296
      6 C          34.6245   50.5805   36.6666 C.ar    1  LIG1        0.0119
      7 C          38.4038   50.9062   36.4676 C.3     1  LIG1        0.0187
      8 C          39.0769   51.0744   35.0856 C.3     1  LIG1       -0.0118
      9 C          40.4572   51.7547   35.2045 C.3     1  LIG1        0.0673
     10 C          41.4843   50.9702   35.9955 C.2     1  LIG1        0.2214
     11 N          42.6656   51.6009   36.1689 N.am    1  LIG1       -0.2923
     12 O          41.2350   49.8580   36.4399 O.2     1  LIG1       -0.2754
     13 N          38.2197   51.9268   34.1958 N.4     1  LIG1        0.2213
     14 C          43.0245   52.8933   35.5292 C.3     1  LIG1        0.0332
     15 C          44.2423   52.6935   34.6022 C.3     1  LIG1        0.0419
     16 C          43.6809   50.9780   37.0444 C.3     1  LIG1        0.0746
     17 C          45.0465   51.1732   36.4208 C.ar    1  LIG1        0.1510
     18 N          45.2813   51.9490   35.3293 N.ar    1  LIG1       -0.3120
     19 C          46.6127   51.8787   35.0454 C.ar    1  LIG1        0.1333
     20 N          47.1514   51.1039   35.9378 N.ar    1  LIG1       -0.1343
     21 N          46.1782   50.6652   36.7962 N.ar    1  LIG1       -0.1327
     22 F          36.0439   52.4044   37.0654 F       1  LIG1       -0.2051
     23 F          33.2064   48.7520   36.2536 F       1  LIG1       -0.2024
     24 F          35.3772   47.1906   35.6727 F       1  LIG1       -0.2025
     25 C          47.3476   52.5537   33.9011 C.3     1  LIG1        0.0046
     26 C          47.3091   51.7494   32.5857 C.3     1  LIG1       -0.0584
     27 H          37.5992   48.4398   35.8686 H       1  LIG1        0.0651
     28 H          33.8322   51.1517   36.8812 H       1  LIG1        0.0676
     29 H          38.4105   51.9711   37.0208 H       1  LIG1        0.0369
     30 H          39.0751   50.1588   37.1218 H       1  LIG1        0.0369
     31 H          39.2061   49.9959   34.5734 H       1  LIG1        0.0858
     32 H          40.2715   52.8192   35.7268 H       1  LIG1        0.0414
     33 H          40.8679   51.8951   34.0852 H       1  LIG1        0.0414
     34 H          37.3970   51.5564   34.0765 H       1  LIG1        0.1997
     35 H          38.5857   52.0313   33.3686 H       1  LIG1        0.1997
     36 H          38.0947   52.7568   34.5496 H       1  LIG1        0.1997
     37 H          42.1810   53.4480   34.8862 H       1  LIG1        0.0482
     38 H          43.3582   53.6449   36.4025 H       1  LIG1        0.0482
     39 H          43.9127   52.0691   33.6315 H       1  LIG1        0.0508
     40 H          44.6492   53.7708   34.2681 H       1  LIG1        0.0508
     41 H          43.4688   49.8031   37.1594 H       1  LIG1        0.0545
     42 H          43.6510   51.4925   38.1276 H       1  LIG1        0.0545
     43 H          48.4897   52.6883   34.2442 H       1  LIG1        0.0341
     44 H          46.8981   53.6511   33.7177 H       1  LIG1        0.0341
     45 H          48.4259   51.5592   32.1877 H       1  LIG1        0.0234
     46 H          46.7030   52.3524   31.7426 H       1  LIG1        0.0234
     47 H          46.7790   50.6851   32.7523 H       1  LIG1        0.0234
@<TRIPOS>BOND
     1     1     2   ar
     2     1    23    1
     3     2     3   ar
     4     2    24    1
     5     3     4   ar
     6     3    27    1
     7     4     5   ar
     8     4     7    1
     9     5     6   ar
    10     5    22    1
    11     6     1   ar
    12     6    28    1
    13     7     8    1
    14     7    29    1
    15     7    30    1
    16     8     9    1
    17     8    13    1
    18     8    31    1
    19     9    10    1
    20     9    32    1
    21     9    33    1
    22    10    11   am
    23    10    12    2
    24    11    14    1
    25    11    16    1
    26    13    34    1
    27    13    35    1
    28    13    36    1
    29    14    15    1
    30    14    37    1
    31    14    38    1
    32    15    18    1
    33    15    39    1
    34    15    40    1
    35    16    41    1
    36    16    42    1
    37    17    16    1
    38    17    18   ar
    39    18    19   ar
    40    19    20   ar
    41    19    25    1
    42    20    21   ar
    43    21    17   ar
    44    25    26    1
    45    25    43    1
    46    25    44    1
    47    26    45    1
    48    26    46    1
    49    26    47    1
