bindingdb_similar_1x70_processed:51
 OpenBabel04261912203D

 50 52  0  0  1  0  0  0  0  0999 V2000
   34.4718   49.2588   36.3407 C   0  0  0  0  0  0  0  0  0  0  0  0
   34.6465   50.5789   36.6877 C   0  0  0  0  0  0  0  0  0  0  0  0
   35.9127   51.1198   36.7451 C   0  0  0  0  0  0  0  0  0  0  0  0
   37.0146   50.3398   36.4547 C   0  0  0  0  0  0  0  0  0  0  0  0
   36.8360   49.0167   36.1137 C   0  0  0  0  0  0  0  0  0  0  0  0
   35.5714   48.4744   36.0532 C   0  0  0  0  0  0  0  0  0  0  0  0
   35.4138   47.1875   35.7112 F   0  0  0  0  0  0  0  0  0  0  0  0
   33.2354   48.7425   36.2821 F   0  0  0  0  0  0  0  0  0  0  0  0
   36.0569   52.4102   37.0808 F   0  0  0  0  0  0  0  0  0  0  0  0
   38.4234   50.9201   36.4928 C   0  0  0  0  0  0  0  0  0  0  0  0
   39.0963   51.0908   35.1098 C   0  0  2  0  0  0  0  0  0  0  0  0
   40.4761   51.7749   35.2323 C   0  0  0  0  0  0  0  0  0  0  0  0
   38.2337   51.9322   34.2082 N   0  3  0  0  0  0  0  0  0  0  0  0
   41.4974   50.9870   36.0316 C   0  0  0  0  0  0  0  0  0  0  0  0
   42.6910   51.6044   36.2152 N   0  0  0  0  0  0  0  0  0  0  0  0
   43.0442   52.8943   35.5560 C   0  0  0  0  0  0  0  0  0  0  0  0
   44.2637   52.7130   34.6284 C   0  0  0  0  0  0  0  0  0  0  0  0
   43.7229   50.9937   37.1054 C   0  0  0  0  0  0  0  0  0  0  0  0
   46.2145   50.7140   36.8329 N   0  0  0  0  0  0  0  0  0  0  0  0
   45.0785   51.2174   36.4634 C   0  0  0  0  0  0  0  0  0  0  0  0
   45.3060   51.9858   35.3652 N   0  0  0  0  0  0  0  0  0  0  0  0
   46.6373   51.9172   35.0762 C   0  0  0  0  0  0  0  0  0  0  0  0
   47.1812   51.1481   35.9695 N   0  0  0  0  0  0  0  0  0  0  0  0
   47.3649   52.5911   33.9275 C   0  0  0  0  0  0  0  0  0  0  0  0
   47.1840   53.9694   33.9406 F   0  0  0  0  0  0  0  0  0  0  0  0
   46.9111   52.1170   32.7018 F   0  0  0  0  0  0  0  0  0  0  0  0
   48.7340   52.3531   33.9845 F   0  0  0  0  0  0  0  0  0  0  0  0
   41.2122   49.8768   36.4586 O   0  0  0  0  0  0  0  0  0  0  0  0
   43.6589   51.6676   38.4902 C   0  0  0  0  0  0  0  0  0  0  0  0
   43.6122   49.4765   37.3638 C   0  0  0  0  0  0  0  0  0  0  0  0
   33.8518   51.1488   36.8957 H   0  0  0  0  0  0  0  0  0  0  0  0
   37.6301   48.4473   35.9025 H   0  0  0  0  0  0  0  0  0  0  0  0
   38.4265   51.9887   37.0388 H   0  0  0  0  0  0  0  0  0  0  0  0
   39.0916   50.1803   37.1615 H   0  0  0  0  0  0  0  0  0  0  0  0
   39.2406   50.0074   34.6120 H   0  0  0  0  0  0  0  0  0  0  0  0
   40.2884   52.8423   35.7484 H   0  0  0  0  0  0  0  0  0  0  0  0
   40.8904   51.8959   34.1118 H   0  0  0  0  0  0  0  0  0  0  0  0
   37.4147   51.5552   34.0835 H   0  0  0  0  0  0  0  0  0  0  0  0
   38.6027   52.0420   33.3831 H   0  0  0  0  0  0  0  0  0  0  0  0
   38.1011   52.7603   34.5618 H   0  0  0  0  0  0  0  0  0  0  0  0
   42.1994   53.4201   34.8918 H   0  0  0  0  0  0  0  0  0  0  0  0
   43.3521   53.6905   36.3978 H   0  0  0  0  0  0  0  0  0  0  0  0
   43.9434   52.0781   33.6613 H   0  0  0  0  0  0  0  0  0  0  0  0
   44.6626   53.7903   34.2823 H   0  0  0  0  0  0  0  0  0  0  0  0
   42.5617   51.5128   38.9504 H   0  0  0  0  0  0  0  0  0  0  0  0
   43.8944   52.8407   38.4115 H   0  0  0  0  0  0  0  0  0  0  0  0
   44.4669   51.1703   39.2253 H   0  0  0  0  0  0  0  0  0  0  0  0
   44.5916   49.0754   37.9305 H   0  0  0  0  0  0  0  0  0  0  0  0
   43.5014   48.9031   36.3150 H   0  0  0  0  0  0  0  0  0  0  0  0
   42.6610   49.2428   38.0565 H   0  0  0  0  0  0  0  0  0  0  0  0
  1  2  2  0  0  0  0
  1  8  1  0  0  0  0
  2  3  1  0  0  0  0
  2 31  1  0  0  0  0
  3  4  2  0  0  0  0
  3  9  1  0  0  0  0
  4  5  1  0  0  0  0
  4 10  1  0  0  0  0
  5  6  2  0  0  0  0
  5 32  1  0  0  0  0
  6  1  1  0  0  0  0
  6  7  1  0  0  0  0
 10 33  1  0  0  0  0
 10 34  1  0  0  0  0
 11 10  1  0  0  0  0
 11 12  1  0  0  0  0
 11 13  1  0  0  0  0
 11 35  1  6  0  0  0
 12 14  1  0  0  0  0
 12 36  1  0  0  0  0
 12 37  1  0  0  0  0
 13 38  1  0  0  0  0
 13 39  1  0  0  0  0
 13 40  1  0  0  0  0
 14 15  1  0  0  0  0
 14 28  2  0  0  0  0
 15 16  1  0  0  0  0
 15 18  1  0  0  0  0
 16 17  1  0  0  0  0
 16 41  1  0  0  0  0
 16 42  1  0  0  0  0
 17 21  1  0  0  0  0
 17 43  1  0  0  0  0
 17 44  1  0  0  0  0
 18 29  1  0  0  0  0
 18 30  1  0  0  0  0
 19 20  2  0  0  0  0
 20 18  1  0  0  0  0
 20 21  1  0  0  0  0
 21 22  1  0  0  0  0
 22 23  2  0  0  0  0
 22 24  1  0  0  0  0
 23 19  1  0  0  0  0
 24 25  1  0  0  0  0
 24 26  1  0  0  0  0
 24 27  1  0  0  0  0
 29 45  1  0  0  0  0
 29 46  1  0  0  0  0
 29 47  1  0  0  0  0
 30 48  1  0  0  0  0
 30 49  1  0  0  0  0
 30 50  1  0  0  0  0
M  CHG  1  13   1
M  END
>  <Mean(IC50 fixed2)>
175

>  <First(BindingDB Ligand Name)>
CHEMBL536088

>  <Concatenate(Target Name Assigned by Curator or DataSource)>
Dipeptidyl Peptidase IV (DPP-IV)

>  <First(Target Source Organism According to Curator or DataSource)>
Homo sapiens

>  <First(Curation/DataSource)>
ChEMBL

>  <First(Article DOI)>
10.1021/jm070330v

>  <Mean(PMID)>
18201067

>  <First(Authors)>
Kim, D; Kowalchick, JE; Brockunier, LL; Parmee, ER; Eiermann, GJ; Fisher, MH; He, H; Leiting, B; Lyons, K; Scapin, G; Patel, SB; Petrov, A; Pryor, KD; Roy, RS; Wu, JK; Zhang, X; Wyvratt, MJ; Zhang, BB; Zhu, L; Thornberry, NA; Weber, AE

>  <First(Institution)>
Merck Research Laboratories<span class=m1fontSize>Curated by</span> <a href=http://www.ebi.ac.uk/chembl/>ChEMBL</a>

>  <First(Link to Ligand in BindingDB)>
http://www.bindingdb.org/bind/chemsearch/marvin/MolStructure.jsp?monomerid=50232524

>  <First(Link to Ligand-Target Pair in BindingDB)>
http://www.bindingdb.org/jsp/dbsearch/PrimarySearch_ki.jsp?energyterm=kJ/mole&tag=r21&monomerid=50232524&enzyme=Dipeptidyl+Peptidase+IV+%28DPP-IV%29&column=ki&startPg=0&Increment=50&submit=Search

>  <Mean(PubChem CID)>
44445032

>  <Mean(PubChem SID)>
104055536

>  <First(ZINC ID of Ligand)>
ZINC03962167

>  <Concatenate*(UniProt (SwissProt) Entry Name of Target Chain)>
DPP4_HUMAN

>  <Mean(Number of Protein Chains in Target (>1 implies a multichain complex))>
1

>  <Median(pIC50)>
6.75696195131371

>  <Journal>
JMedChem2008

>  <Activity Classes>
6.75696195131371

>  <Conformer_cresset>
1

>  <Similarity_cresset>
0.872

>  <Favorite_cresset>
false

>  <Activity (Median(pIC50))_cresset>
6.76

>  <LE (Median(pIC50))_cresset>
0.315

>  <LipE (Median(pIC50))_cresset>
3.2

>  <Tags_cresset>
training

>  <Confs_cresset>
2

>  <Conf#_cresset>
1

>  <Alns_cresset>
2

>  <MW_cresset>
436.4

>  <#Atoms_cresset>
30

>  <SlogP_cresset>
3.6

>  <TPSA_cresset>
78.7

>  <Flexibility_cresset>
4.9

>  <#RB_cresset>
6

>  <Rof5_cresset>
0

>  <Filename_cresset>
bindingdb_similar_1x70_processed.sdf

>  <Notes_cresset>
36

>  <Selected Alignment_cresset>
true

>  <Alignment Cluster Centre_cresset>
true

>  <_cresset_fieldpoints>
-5      40.636097      48.184494      36.725639     -7.1594
-5      47.862225      49.945248      37.233471    -12.3725
-5      32.830044      45.946316      35.697258     -2.6151
-6      42.062439      53.425251      32.702442     11.6300
-6      35.725212      50.531860      33.274426      5.5331
-7      37.137054      49.370907      32.922852     -2.4139
-7      40.082352      47.938396      36.083935     -2.7918
-7      36.043659      49.002323      39.479290     -2.1452
-7      35.387280      50.387867      33.251549     -2.5449
-7      38.478313      54.487236      36.378155     -2.0595
-7      39.965191      54.382034      33.529671     -1.8728
-7      40.605789      52.937473      38.250259     -2.9085
-7      40.199245      50.299278      32.140587     -1.5238
-7      43.010525      49.726448      33.916660     -3.0767
-7      41.953156      53.295471      32.282330     -1.6946
-7      44.545483      54.143467      31.700811     -1.5838
-7      46.837627      50.040611      39.000690     -1.8174
-7      49.075813      54.179943      31.175850     -1.1114
-7      45.750889      54.422997      37.090714     -2.6833
-7      46.633732      48.530334      35.741089     -1.8497
-7      43.364723      49.177418      40.640663     -1.3884
-8      35.738518      49.796391      36.397789      7.2654
-8      39.529465      51.345585      35.960541      4.9345
-8      43.475380      53.291515      34.766350      3.8208
-8      43.863968      50.558949      37.933105      5.0424
-8      47.384628      52.634586      33.860706      5.6599

$$$$
