@<TRIPOS>MOLECULE
Copy of bindingdb_similar_1x70_processed:46
 47 49 0 0 0
SMALL
GASTEIGER

@<TRIPOS>ATOM
      1 C          34.3616   49.2218   36.2860 C.ar    1  LIG1        0.1611
      2 C          34.5102   50.5448   36.6343 C.ar    1  LIG1        0.0119
      3 C          35.7688   51.0977   36.7363 C.ar    1  LIG1        0.1296
      4 C          36.8894   50.3269   36.4946 C.ar    1  LIG1       -0.0040
      5 C          36.7349   49.0017   36.1492 C.ar    1  LIG1       -0.0175
      6 C          35.4785   48.4480   36.0403 C.ar    1  LIG1        0.1588
      7 F          35.3461   47.1605   35.6924 F       1  LIG1       -0.2025
      8 F          33.1334   48.6937   36.1843 F       1  LIG1       -0.2024
      9 F          35.8875   52.3909   37.0697 F       1  LIG1       -0.2051
     10 C          38.2915   50.9173   36.5829 C.3     1  LIG1        0.0187
     11 C          38.9860   51.1087   35.2165 C.3     1  LIG1       -0.0118
     12 C          40.3511   51.8120   35.3629 C.3     1  LIG1        0.0673
     13 N          38.1269   51.9479   34.3077 N.4     1  LIG1        0.2213
     14 C          41.4351   51.0101   36.0683 C.2     1  LIG1        0.2216
     15 N          42.6964   51.4680   35.8930 N.am    1  LIG1       -0.2895
     16 C          43.0721   52.3511   34.7506 C.3     1  LIG1        0.0416
     17 C          44.4625   53.0271   34.8161 C.3     1  LIG1        0.0447
     18 C          43.7061   51.0104   36.8771 C.3     1  LIG1        0.0749
     19 N          46.1940   50.5611   36.6764 N.ar    1  LIG1       -0.1324
     20 C          45.1085   51.1870   36.3451 C.ar    1  LIG1        0.1512
     21 N          45.4206   52.0641   35.3644 N.ar    1  LIG1       -0.3046
     22 C          46.7391   51.9118   35.0608 C.ar    1  LIG1        0.2377
     23 N          47.2100   51.0137   35.8732 N.ar    1  LIG1       -0.1250
     24 C          47.4999   52.6114   33.9500 C.3     1  LIG1        0.4524
     25 F          47.3184   53.9897   33.9801 F       1  LIG1       -0.1632
     26 F          47.0513   52.1578   32.7140 F       1  LIG1       -0.1632
     27 F          48.8665   52.3620   34.0137 F       1  LIG1       -0.1632
     28 O          41.1582   50.0509   36.7763 O.2     1  LIG1       -0.2754
     29 C          43.0595   51.5181   33.4490 C.3     1  LIG1       -0.0447
     30 H          33.7030   51.1074   36.8113 H       1  LIG1        0.0676
     31 H          37.5415   48.4384   35.9709 H       1  LIG1        0.0651
     32 H          38.2658   51.9821   37.1351 H       1  LIG1        0.0369
     33 H          38.9535   50.1777   37.2565 H       1  LIG1        0.0369
     34 H          39.1540   50.0351   34.7073 H       1  LIG1        0.0858
     35 H          40.1962   52.8387   35.9637 H       1  LIG1        0.0414
     36 H          40.6342   52.0752   34.2313 H       1  LIG1        0.0414
     37 H          37.3109   51.5701   34.1773 H       1  LIG1        0.1997
     38 H          38.4928   52.0565   33.4818 H       1  LIG1        0.1997
     39 H          37.9815   52.7787   34.6496 H       1  LIG1        0.1997
     40 H          42.3076   53.2722   34.6660 H       1  LIG1        0.0515
     41 H          44.8088   53.4058   33.7312 H       1  LIG1        0.0511
     42 H          44.4233   53.9619   35.5676 H       1  LIG1        0.0511
     43 H          43.5175   49.8530   37.1282 H       1  LIG1        0.0545
     44 H          43.5880   51.6558   37.8817 H       1  LIG1        0.0545
     45 H          44.0642   50.8665   33.3717 H       1  LIG1        0.0248
     46 H          42.1371   50.7535   33.4017 H       1  LIG1        0.0248
     47 H          43.0093   52.2675   32.5134 H       1  LIG1        0.0248
@<TRIPOS>BOND
     1     1     2   ar
     2     1     8    1
     3     2     3   ar
     4     2    30    1
     5     3     4   ar
     6     3     9    1
     7     4     5   ar
     8     4    10    1
     9     5     6   ar
    10     5    31    1
    11     6     1   ar
    12     6     7    1
    13    10    32    1
    14    10    33    1
    15    11    10    1
    16    11    12    1
    17    11    13    1
    18    11    34    1
    19    12    14    1
    20    12    35    1
    21    12    36    1
    22    13    37    1
    23    13    38    1
    24    13    39    1
    25    14    15   am
    26    14    28    2
    27    15    16    1
    28    15    18    1
    29    16    17    1
    30    16    29    1
    31    16    40    1
    32    17    21    1
    33    17    41    1
    34    17    42    1
    35    18    43    1
    36    18    44    1
    37    19    20   ar
    38    20    18    1
    39    20    21   ar
    40    21    22   ar
    41    22    23   ar
    42    22    24    1
    43    23    19   ar
    44    24    25    1
    45    24    26    1
    46    24    27    1
    47    29    45    1
    48    29    46    1
    49    29    47    1
