bindingdb_similar_1x70_processed:53
 OpenBabel04261912203D

 51 54  0  0  1  0  0  0  0  0999 V2000
   34.2378   49.4444   36.2680 C   0  0  0  0  0  0  0  0  0  0  0  0
   34.4413   50.7639   36.5957 C   0  0  0  0  0  0  0  0  0  0  0  0
   35.7216   51.2662   36.6836 C   0  0  0  0  0  0  0  0  0  0  0  0
   36.8069   50.4459   36.4437 C   0  0  0  0  0  0  0  0  0  0  0  0
   36.5979   49.1237   36.1197 C   0  0  0  0  0  0  0  0  0  0  0  0
   35.3173   48.6225   36.0290 C   0  0  0  0  0  0  0  0  0  0  0  0
   38.2314   50.9801   36.5170 C   0  0  0  0  0  0  0  0  0  0  0  0
   38.9492   51.0977   35.1523 C   0  0  1  0  0  0  0  0  0  0  0  0
   38.1474   51.9540   34.2103 N   0  3  0  0  0  0  0  0  0  0  0  0
   40.3452   51.7361   35.3078 C   0  0  0  0  0  0  0  0  0  0  0  0
   41.3234   50.9407   36.1521 C   0  0  0  0  0  0  0  0  0  0  0  0
   41.0330   49.8424   36.6077 O   0  0  0  0  0  0  0  0  0  0  0  0
   42.5140   51.5462   36.3551 N   0  0  0  0  0  0  0  0  0  0  0  0
   42.9298   52.8201   35.7165 C   0  0  0  0  0  0  0  0  0  0  0  0
   44.1626   52.5590   34.8238 C   0  0  0  0  0  0  0  0  0  0  0  0
   43.4914   50.9178   37.2661 C   0  0  0  0  0  0  0  0  0  0  0  0
   44.8788   51.0490   36.6733 C   0  0  0  0  0  0  0  0  0  0  0  0
   45.1701   51.7701   35.5559 N   0  0  0  0  0  0  0  0  0  0  0  0
   46.5204   51.6408   35.3218 C   0  0  0  0  0  0  0  0  0  0  0  0
   46.9980   50.9019   36.2908 N   0  0  0  0  0  0  0  0  0  0  0  0
   45.9790   50.5332   37.1220 N   0  0  0  0  0  0  0  0  0  0  0  0
   35.1215   47.3375   35.7055 F   0  0  0  0  0  0  0  0  0  0  0  0
   47.2625   52.1986   34.2042 C   0  0  0  0  0  0  0  0  0  0  0  0
   48.6419   52.3451   34.3138 C   0  0  0  0  0  0  0  0  0  0  0  0
   49.3830   52.8395   33.2648 C   0  0  0  0  0  0  0  0  0  0  0  0
   48.7662   53.1935   32.0862 C   0  0  0  0  0  0  0  0  0  0  0  0
   47.4000   53.0582   31.9616 C   0  0  0  0  0  0  0  0  0  0  0  0
   46.6611   52.5685   33.0087 C   0  0  0  0  0  0  0  0  0  0  0  0
   49.4906   53.6639   31.0635 F   0  0  0  0  0  0  0  0  0  0  0  0
   35.8976   52.5578   37.0006 F   0  0  0  0  0  0  0  0  0  0  0  0
   49.2752   52.0140   35.4495 F   0  0  0  0  0  0  0  0  0  0  0  0
   33.3084   49.0821   36.2028 H   0  0  0  0  0  0  0  0  0  0  0  0
   33.6584   51.3615   36.7685 H   0  0  0  0  0  0  0  0  0  0  0  0
   37.3797   48.5253   35.9440 H   0  0  0  0  0  0  0  0  0  0  0  0
   38.8569   50.2326   37.2168 H   0  0  0  0  0  0  0  0  0  0  0  0
   38.2480   52.0572   37.0461 H   0  0  0  0  0  0  0  0  0  0  0  0
   39.0707   50.0027   34.6778 H   0  0  0  0  0  0  0  0  0  0  0  0
   37.3187   51.6083   34.0639 H   0  0  0  0  0  0  0  0  0  0  0  0
   38.5434   52.0351   33.3946 H   0  0  0  0  0  0  0  0  0  0  0  0
   38.0319   52.7950   34.5391 H   0  0  0  0  0  0  0  0  0  0  0  0
   40.1778   52.8184   35.7994 H   0  0  0  0  0  0  0  0  0  0  0  0
   40.8035   51.8344   34.2025 H   0  0  0  0  0  0  0  0  0  0  0  0
   42.1242   53.3905   35.0393 H   0  0  0  0  0  0  0  0  0  0  0  0
   43.2573   53.5713   36.5926 H   0  0  0  0  0  0  0  0  0  0  0  0
   43.7981   51.9374   33.8643 H   0  0  0  0  0  0  0  0  0  0  0  0
   44.6119   53.6209   34.4914 H   0  0  0  0  0  0  0  0  0  0  0  0
   43.2423   49.7518   37.4012 H   0  0  0  0  0  0  0  0  0  0  0  0
   43.4549   51.4660   38.3336 H   0  0  0  0  0  0  0  0  0  0  0  0
   50.3734   52.9407   33.3582 H   0  0  0  0  0  0  0  0  0  0  0  0
   46.9476   53.3139   31.1070 H   0  0  0  0  0  0  0  0  0  0  0  0
   45.6748   52.4686   32.8985 H   0  0  0  0  0  0  0  0  0  0  0  0
  1  2  2  0  0  0  0
  1 32  1  0  0  0  0
  2  3  1  0  0  0  0
  2 33  1  0  0  0  0
  3  4  2  0  0  0  0
  3 30  1  0  0  0  0
  4  5  1  0  0  0  0
  4  7  1  0  0  0  0
  5  6  2  0  0  0  0
  5 34  1  0  0  0  0
  6  1  1  0  0  0  0
  6 22  1  0  0  0  0
  7 35  1  0  0  0  0
  7 36  1  0  0  0  0
  8  7  1  0  0  0  0
  8  9  1  0  0  0  0
  8 10  1  0  0  0  0
  8 37  1  6  0  0  0
  9 38  1  0  0  0  0
  9 39  1  0  0  0  0
  9 40  1  0  0  0  0
 10 11  1  0  0  0  0
 10 41  1  0  0  0  0
 10 42  1  0  0  0  0
 11 12  2  0  0  0  0
 11 13  1  0  0  0  0
 13 14  1  0  0  0  0
 13 16  1  0  0  0  0
 14 15  1  0  0  0  0
 14 43  1  0  0  0  0
 14 44  1  0  0  0  0
 15 18  1  0  0  0  0
 15 45  1  0  0  0  0
 15 46  1  0  0  0  0
 16 47  1  0  0  0  0
 16 48  1  0  0  0  0
 17 16  1  0  0  0  0
 17 18  1  0  0  0  0
 18 19  1  0  0  0  0
 19 20  2  0  0  0  0
 19 23  1  0  0  0  0
 20 21  1  0  0  0  0
 21 17  2  0  0  0  0
 23 24  2  0  0  0  0
 24 25  1  0  0  0  0
 24 31  1  0  0  0  0
 25 26  2  0  0  0  0
 25 49  1  0  0  0  0
 26 27  1  0  0  0  0
 26 29  1  0  0  0  0
 27 28  2  0  0  0  0
 27 50  1  0  0  0  0
 28 23  1  0  0  0  0
 28 51  1  0  0  0  0
M  CHG  1   9   1
M  END
>  <Mean(IC50 fixed2)>
30

>  <First(BindingDB Ligand Name)>
CHEMBL389599

>  <Concatenate(Target Name Assigned by Curator or DataSource)>
Dipeptidyl Peptidase IV (DPP-IV)

>  <First(Target Source Organism According to Curator or DataSource)>
Homo sapiens

>  <First(Curation/DataSource)>
ChEMBL

>  <First(Article DOI)>
10.1016/j.bmcl.2007.03.098

>  <Mean(PMID)>
17434732

>  <First(Authors)>
Kim, D; Kowalchick, JE; Edmondson, SD; Mastracchio, A; Xu, J; Eiermann, GJ; Leiting, B; Wu, JK; Pryor, KD; Patel, RA; He, H; Lyons, KA; Thornberry, NA; Weber, AE

>  <First(Institution)>
Merck Research Laboratories<span class=m1fontSize>Curated by</span> <a href=http://www.ebi.ac.uk/chembl/>ChEMBL</a>

>  <First(Link to Ligand in BindingDB)>
http://www.bindingdb.org/bind/chemsearch/marvin/MolStructure.jsp?monomerid=50210668

>  <First(Link to Ligand-Target Pair in BindingDB)>
http://www.bindingdb.org/jsp/dbsearch/PrimarySearch_ki.jsp?energyterm=kJ/mole&tag=r21&monomerid=50210668&enzyme=Dipeptidyl+Peptidase+IV+%28DPP-IV%29&column=ki&startPg=0&Increment=50&submit=Search

>  <Mean(PubChem CID)>
44431213

>  <Mean(PubChem SID)>
104087155

>  <First(ZINC ID of Ligand)>
ZINC28820843

>  <Concatenate*(UniProt (SwissProt) Entry Name of Target Chain)>
DPP4_HUMAN

>  <Mean(Number of Protein Chains in Target (>1 implies a multichain complex))>
1

>  <Median(pIC50)>
7.52287874528034

>  <Journal>
BiorgMedChemLett2007

>  <Activity Classes>
7.52287874528034

>  <Conformer_cresset>
1

>  <Similarity_cresset>
0.761

>  <Favorite_cresset>
false

>  <Activity (Median(pIC50))_cresset>
7.52

>  <LE (Median(pIC50))_cresset>
0.340

>  <LipE (Median(pIC50))_cresset>
3.6

>  <Tags_cresset>
training

>  <Confs_cresset>
5

>  <Conf#_cresset>
1

>  <Alns_cresset>
5

>  <MW_cresset>
434.4

>  <#Atoms_cresset>
31

>  <SlogP_cresset>
3.9

>  <TPSA_cresset>
78.7

>  <Flexibility_cresset>
4.9

>  <#RB_cresset>
6

>  <Rof5_cresset>
0

>  <Filename_cresset>
bindingdb_similar_1x70_processed.sdf

>  <Notes_cresset>
43

>  <Selected Alignment_cresset>
true

>  <Alignment Cluster Centre_cresset>
true

>  <_cresset_fieldpoints>
-5      40.386765      48.199898      36.981201     -7.6897
-5      47.711266      49.914585      37.625488    -14.9505
-5      36.295025      48.858418      39.247616     -1.5582
-6      31.416727      50.692833      36.428410      4.5342
-6      43.724129      53.626709      32.277668     12.4234
-6      42.250206      53.363689      32.785290     12.6192
-7      31.063137      50.551445      36.661358     -1.0153
-7      37.028553      49.409725      32.932552     -2.3908
-7      40.692738      52.557030      38.463444     -2.6399
-7      42.972244      49.513653      34.243145     -2.7304
-7      43.806889      53.902657      31.898592     -1.8177
-7      39.979958      54.331764      33.547626     -1.8811
-7      38.408325      54.538322      36.336273     -2.0579
-7      40.101250      50.235607      32.221367     -1.5185
-7      45.991627      54.562847      36.609764     -2.3777
-7      44.689415      49.551601      33.545216     -2.2819
-7      41.990131      53.237511      32.408691     -1.7704
-7      47.674679      51.878265      38.404419     -1.7917
-7      48.127823      48.851780      35.488644     -1.6979
-7      35.352837      50.433155      33.154896     -2.4148
-7      39.777832      47.942116      36.140781     -2.5444
-7      35.854057      49.268597      39.486519     -2.0490
-7      48.420502      49.646633      32.220242     -2.0692
-8      35.524956      49.947536      36.352871      7.2401
-8      39.367027      51.342926      36.011795      4.9468
-8      48.024906      52.701885      33.141937      7.1911
-8      43.399811      53.168015      34.905960      3.8174
-8      36.841869      51.288944      36.640846      5.6145
-8      43.983837      50.751709      37.609280      2.7856

$$$$
