bindingdb_similar_1x70_processed:2
 OpenBabel04261912203D

 41 43  0  0  1  0  0  0  0  0999 V2000
   34.4437   49.2644   36.3104 C   0  0  0  0  0  0  0  0  0  0  0  0
   34.6244   50.5822   36.6632 C   0  0  0  0  0  0  0  0  0  0  0  0
   35.8935   51.1170   36.7220 C   0  0  0  0  0  0  0  0  0  0  0  0
   36.9926   50.3328   36.4296 C   0  0  0  0  0  0  0  0  0  0  0  0
   36.8064   49.0123   36.0817 C   0  0  0  0  0  0  0  0  0  0  0  0
   35.5396   48.4762   36.0189 C   0  0  0  0  0  0  0  0  0  0  0  0
   38.4065   50.9009   36.4699 C   0  0  0  0  0  0  0  0  0  0  0  0
   39.0764   51.0710   35.0866 C   0  0  2  0  0  0  0  0  0  0  0  0
   40.4565   51.7496   35.2088 C   0  0  0  0  0  0  0  0  0  0  0  0
   38.2200   51.9265   34.1939 N   0  3  0  0  0  0  0  0  0  0  0  0
   41.4865   50.9682   36.0022 C   0  0  0  0  0  0  0  0  0  0  0  0
   42.6678   51.6032   36.1736 N   0  0  0  0  0  0  0  0  0  0  0  0
   41.2366   49.8551   36.4464 O   0  0  0  0  0  0  0  0  0  0  0  0
   43.0269   52.8950   35.5284 C   0  0  0  0  0  0  0  0  0  0  0  0
   44.2399   52.7076   34.5881 C   0  0  0  0  0  0  0  0  0  0  0  0
   43.6867   50.9857   37.0503 C   0  0  0  0  0  0  0  0  0  0  0  0
   45.0499   51.1759   36.4188 C   0  0  0  0  0  0  0  0  0  0  0  0
   45.2501   51.9462   35.3290 N   0  0  0  0  0  0  0  0  0  0  0  0
   46.5644   51.8769   35.0098 N   0  0  0  0  0  0  0  0  0  0  0  0
   47.1042   51.0995   35.9064 C   0  0  0  0  0  0  0  0  0  0  0  0
   46.1979   50.6497   36.7990 N   0  0  0  0  0  0  0  0  0  0  0  0
   36.0441   52.4053   37.0637 F   0  0  0  0  0  0  0  0  0  0  0  0
   33.2052   48.7541   36.2498 F   0  0  0  0  0  0  0  0  0  0  0  0
   35.3762   47.1913   35.6718 F   0  0  0  0  0  0  0  0  0  0  0  0
   33.8322   51.1543   36.8756 H   0  0  0  0  0  0  0  0  0  0  0  0
   37.5980   48.4397   35.8683 H   0  0  0  0  0  0  0  0  0  0  0  0
   38.4146   51.9647   37.0253 H   0  0  0  0  0  0  0  0  0  0  0  0
   39.0745   50.1525   37.1278 H   0  0  0  0  0  0  0  0  0  0  0  0
   39.2117   49.9918   34.5797 H   0  0  0  0  0  0  0  0  0  0  0  0
   40.2728   52.8158   35.7282 H   0  0  0  0  0  0  0  0  0  0  0  0
   40.8723   51.8868   34.0914 H   0  0  0  0  0  0  0  0  0  0  0  0
   37.3990   51.5581   34.0648 H   0  0  0  0  0  0  0  0  0  0  0  0
   38.5866   52.0405   33.3690 H   0  0  0  0  0  0  0  0  0  0  0  0
   38.0871   52.7549   34.5467 H   0  0  0  0  0  0  0  0  0  0  0  0
   42.1761   53.4535   34.8978 H   0  0  0  0  0  0  0  0  0  0  0  0
   43.3630   53.6386   36.4079 H   0  0  0  0  0  0  0  0  0  0  0  0
   43.9069   52.0804   33.6212 H   0  0  0  0  0  0  0  0  0  0  0  0
   44.6774   53.7737   34.2531 H   0  0  0  0  0  0  0  0  0  0  0  0
   43.4756   49.8100   37.1625 H   0  0  0  0  0  0  0  0  0  0  0  0
   43.6574   51.5019   38.1331 H   0  0  0  0  0  0  0  0  0  0  0  0
   48.0747   50.8622   35.9284 H   0  0  0  0  0  0  0  0  0  0  0  0
  1  2  2  0  0  0  0
  1 23  1  0  0  0  0
  2  3  1  0  0  0  0
  2 25  1  0  0  0  0
  3  4  2  0  0  0  0
  3 22  1  0  0  0  0
  4  5  1  0  0  0  0
  4  7  1  0  0  0  0
  5  6  2  0  0  0  0
  5 26  1  0  0  0  0
  6  1  1  0  0  0  0
  6 24  1  0  0  0  0
  7 27  1  0  0  0  0
  7 28  1  0  0  0  0
  8  7  1  0  0  0  0
  8  9  1  0  0  0  0
  8 10  1  0  0  0  0
  8 29  1  6  0  0  0
  9 11  1  0  0  0  0
  9 30  1  0  0  0  0
  9 31  1  0  0  0  0
 10 32  1  0  0  0  0
 10 33  1  0  0  0  0
 10 34  1  0  0  0  0
 11 12  1  0  0  0  0
 11 13  2  0  0  0  0
 12 14  1  0  0  0  0
 12 16  1  0  0  0  0
 14 15  1  0  0  0  0
 14 35  1  0  0  0  0
 14 36  1  0  0  0  0
 15 18  1  0  0  0  0
 15 37  1  0  0  0  0
 15 38  1  0  0  0  0
 16 39  1  0  0  0  0
 16 40  1  0  0  0  0
 17 16  1  0  0  0  0
 17 18  1  0  0  0  0
 18 19  1  0  0  0  0
 19 20  2  0  0  0  0
 20 21  1  0  0  0  0
 20 41  1  0  0  0  0
 21 17  2  0  0  0  0
M  CHG  1  10   1
M  END
>  <Mean(IC50 fixed2)>
100

>  <First(BindingDB Ligand Name)>
CHEMBL248743

>  <Concatenate(Target Name Assigned by Curator or DataSource)>
Dipeptidyl Peptidase IV (DPP-IV)

>  <First(Target Source Organism According to Curator or DataSource)>
Homo sapiens

>  <First(Curation/DataSource)>
ChEMBL

>  <First(Article DOI)>
10.1016/j.bmcl.2007.07.100

>  <Mean(PMID)>
17827003

>  <First(Authors)>
Kowalchick, JE; Leiting, B; Pryor, KD; Marsilio, F; Wu, JK; He, H; Lyons, KA; Eiermann, GJ; Petrov, A; Scapin, G; Patel, RA; Thornberry, NA; Weber, AE; Kim, D

>  <First(Institution)>
Merck Research Laboratories<span class=m1fontSize>Curated by</span> <a href=http://www.ebi.ac.uk/chembl/>ChEMBL</a>

>  <First(Link to Ligand in BindingDB)>
http://www.bindingdb.org/bind/chemsearch/marvin/MolStructure.jsp?monomerid=50221450

>  <First(Link to Ligand-Target Pair in BindingDB)>
http://www.bindingdb.org/jsp/dbsearch/PrimarySearch_ki.jsp?energyterm=kJ/mole&tag=r21&monomerid=50221450&enzyme=Dipeptidyl+Peptidase+IV+%28DPP-IV%29&column=ki&startPg=0&Increment=50&submit=Search

>  <Mean(PubChem CID)>
44444344

>  <Mean(PubChem SID)>
104094107

>  <First(ZINC ID of Ligand)>
ZINC28958774

>  <Concatenate*(UniProt (SwissProt) Entry Name of Target Chain)>
DPP4_HUMAN

>  <Mean(Number of Protein Chains in Target (>1 implies a multichain complex))>
1

>  <Median(pIC50)>
7

>  <Journal>
Kow BioorgMedChemLett2007

>  <Activity Classes>
7

>  <Conformer_cresset>
1

>  <Similarity_cresset>
0.783

>  <Favorite_cresset>
false

>  <Activity (Median(pIC50))_cresset>
7

>  <LE (Median(pIC50))_cresset>
0.408

>  <LipE (Median(pIC50))_cresset>
5.2

>  <Tags_cresset>
training

>  <Confs_cresset>
2

>  <Conf#_cresset>
1

>  <Alns_cresset>
2

>  <MW_cresset>
340.3

>  <#Atoms_cresset>
24

>  <SlogP_cresset>
1.8

>  <TPSA_cresset>
78.7

>  <Flexibility_cresset>
4.9

>  <#RB_cresset>
5

>  <Rof5_cresset>
0

>  <Filename_cresset>
bindingdb_similar_1x70_processed.sdf

>  <Notes_cresset>
26

>  <Selected Alignment_cresset>
true

>  <Alignment Cluster Centre_cresset>
true

>  <_cresset_fieldpoints>
-5      40.638058      48.177979      36.717842     -7.0361
-5      47.422195      52.364597      33.369839     -3.2949
-5      46.669670      49.254662      38.088158     -4.9118
-5      32.789997      45.964718      35.649422     -2.6617
-6      40.618584      54.101429      33.443230     10.3684
-6      41.808159      53.496975      32.738358     10.4319
-6      35.692158      50.553753      33.260441      5.3963
-7      35.366455      50.405140      33.226391     -2.5468
-7      37.085674      49.386242      32.893520     -2.4155
-7      40.883274      52.518780      38.365067     -2.6291
-7      38.474522      54.470070      36.369682     -2.0567
-7      39.945751      54.378860      33.531086     -1.8771
-7      40.141052      50.314690      32.094212     -1.5141
-7      40.021812      47.923717      35.974655     -2.5460
-7      43.282112      56.048336      34.827602     -1.1105
-7      41.834713      53.389488      32.302227     -1.6184
-7      43.053951      49.612457      34.018166     -2.5636
-7      45.994213      54.352932      36.759300     -1.8729
-7      45.925388      48.723782      38.432632     -1.2159
-7      41.399467      48.525829      34.430626     -1.9199
-7      36.012814      48.985958      39.447517     -2.1446
-8      35.713062      49.795765      36.369492      7.2636
-8      39.513096      51.312576      35.939358      4.9373
-8      43.435638      53.301853      34.732716      3.7198
-8      44.208958      50.822079      37.386990      2.8118
-8      37.011791      51.172459      36.643330      5.6083
-8      48.314606      50.785919      35.976936      1.2964

$$$$
