@<TRIPOS>MOLECULE
bindingdb_similar_1x70_processed:40
 50 52 0 0 0
SMALL
GASTEIGER

@<TRIPOS>ATOM
      1 C          34.4631   49.2384   36.3980 C.ar    1  LIG1        0.1611
      2 C          34.6102   50.5852   36.6386 C.ar    1  LIG1        0.0119
      3 C          35.8652   51.1553   36.6490 C.ar    1  LIG1        0.1296
      4 C          36.9849   50.3785   36.4201 C.ar    1  LIG1       -0.0040
      5 C          36.8319   49.0293   36.1824 C.ar    1  LIG1       -0.0175
      6 C          35.5789   48.4576   36.1688 C.ar    1  LIG1        0.1588
      7 C          38.3831   50.9859   36.4157 C.3     1  LIG1        0.0187
      8 C          39.0134   51.1550   35.0147 C.3     1  LIG1       -0.0118
      9 N          38.1627   52.0559   34.1622 N.4     1  LIG1        0.2213
     10 C          40.4243   51.7728   35.1144 C.3     1  LIG1        0.0673
     11 C          41.4501   50.8865   35.7966 C.2     1  LIG1        0.2214
     12 O          41.1844   49.7319   36.1044 O.2     1  LIG1       -0.2754
     13 N          42.6435   51.4762   36.0378 N.am    1  LIG1       -0.2923
     14 C          42.9994   52.8509   35.5989 C.3     1  LIG1        0.0332
     15 C          44.3325   52.8967   34.8198 C.3     1  LIG1        0.0424
     16 C          43.6480   50.7402   36.8347 C.3     1  LIG1        0.0746
     17 C          45.0499   51.0807   36.3701 C.ar    1  LIG1        0.1514
     18 N          45.3458   52.0570   35.4743 N.ar    1  LIG1       -0.3029
     19 C          46.7041   52.0595   35.2920 C.ar    1  LIG1        0.2419
     20 N          47.1870   51.1268   36.0652 N.ar    1  LIG1       -0.1223
     21 N          46.1638   50.5232   36.7341 N.ar    1  LIG1       -0.1322
     22 F          35.4482   47.1445   35.9305 F       1  LIG1       -0.2025
     23 F          35.9815   52.4709   36.8825 F       1  LIG1       -0.2051
     24 C          47.5244   52.9132   34.3936 C.2     1  LIG1        0.3769
     25 F          33.2380   48.6929   36.3864 F       1  LIG1       -0.2024
     26 O          48.7006   52.6156   34.2596 O.2     1  LIG1       -0.2414
     27 O          46.9812   53.9704   33.7491 O.3     1  LIG1       -0.4593
     28 C          47.8348   54.7554   32.8923 C.3     1  LIG1        0.0901
     29 C          48.7748   55.6654   33.7008 C.3     1  LIG1       -0.0306
     30 H          39.0909   50.0802   34.4867 H       1  LIG1        0.0858
     31 H          33.8038   51.1527   36.8051 H       1  LIG1        0.0676
     32 H          37.6376   48.4611   36.0153 H       1  LIG1        0.0651
     33 H          38.3665   52.0581   36.9548 H       1  LIG1        0.0369
     34 H          39.0964   50.2741   37.0672 H       1  LIG1        0.0369
     35 H          37.3174   51.7335   34.0661 H       1  LIG1        0.1997
     36 H          38.4990   52.1538   33.3223 H       1  LIG1        0.1997
     37 H          38.0877   52.8902   34.5182 H       1  LIG1        0.1997
     38 H          40.3087   52.8029   35.7191 H       1  LIG1        0.0414
     39 H          40.7965   51.9777   33.9918 H       1  LIG1        0.0414
     40 H          42.2091   53.4138   34.8976 H       1  LIG1        0.0482
     41 H          43.1411   53.5078   36.5930 H       1  LIG1        0.0482
     42 H          44.1516   52.4879   33.7061 H       1  LIG1        0.0508
     43 H          44.6908   54.0403   34.7761 H       1  LIG1        0.0508
     44 H          43.4787   49.5582   36.7158 H       1  LIG1        0.0545
     45 H          43.5325   51.0407   37.9907 H       1  LIG1        0.0545
     46 H          48.4780   54.0279   32.1873 H       1  LIG1        0.0695
     47 H          47.1415   55.4538   32.2054 H       1  LIG1        0.0695
     48 H          48.1262   56.3712   34.4226 H       1  LIG1        0.0262
     49 H          49.4146   56.3456   32.9470 H       1  LIG1        0.0262
     50 H          49.5199   54.9940   34.3594 H       1  LIG1        0.0262
@<TRIPOS>BOND
     1     1     2   ar
     2     1    25    1
     3     2     3   ar
     4     2    31    1
     5     3     4   ar
     6     3    23    1
     7     4     5   ar
     8     4     7    1
     9     5     6   ar
    10     5    32    1
    11     6     1   ar
    12     6    22    1
    13     7    33    1
    14     7    34    1
    15     8     7    1
    16     8     9    1
    17     8    10    1
    18     8    30    1
    19     9    35    1
    20     9    36    1
    21     9    37    1
    22    10    11    1
    23    10    38    1
    24    10    39    1
    25    11    12    2
    26    11    13   am
    27    13    14    1
    28    13    16    1
    29    14    15    1
    30    14    40    1
    31    14    41    1
    32    15    18    1
    33    15    42    1
    34    15    43    1
    35    16    44    1
    36    16    45    1
    37    17    16    1
    38    17    18   ar
    39    18    19   ar
    40    19    20   ar
    41    19    24    1
    42    20    21   ar
    43    21    17   ar
    44    24    26    2
    45    24    27    1
    46    27    28    1
    47    28    29    1
    48    28    46    1
    49    28    47    1
    50    29    48    1
    51    29    49    1
    52    29    50    1
