@<TRIPOS>MOLECULE
12b (R)
 47 49 0 0 0
SMALL
GASTEIGER

@<TRIPOS>ATOM
      1 C          35.6918   48.5482   36.3109 C.ar    1  LIG1        0.1588
      2 C          34.5541   49.3136   36.4757 C.ar    1  LIG1        0.1611
      3 C          34.6650   50.6752   36.6408 C.ar    1  LIG1        0.0119
      4 C          35.9058   51.2751   36.6396 C.ar    1  LIG1        0.1296
      5 C          37.0472   50.5141   36.4752 C.ar    1  LIG1       -0.0040
      6 C          36.9306   49.1501   36.3132 C.ar    1  LIG1       -0.0175
      7 C          38.4296   51.1565   36.4636 C.3     1  LIG1        0.0187
      8 C          39.1083   51.2266   35.0767 C.3     1  LIG1       -0.0118
      9 C          40.5023   51.8826   35.1767 C.3     1  LIG1        0.0673
     10 C          41.5142   51.0693   35.9636 C.2     1  LIG1        0.2214
     11 N          38.2690   52.0312   34.1231 N.4     1  LIG1        0.2213
     12 O          41.2235   49.9751   36.4284 O.2     1  LIG1       -0.2754
     13 C          43.7410   50.9833   36.9499 C.3     1  LIG1        0.0746
     14 C          43.1332   52.9362   35.4947 C.3     1  LIG1        0.0358
     15 C          44.3665   52.7809   34.5704 C.3     1  LIG1        0.0505
     16 N          42.7286   51.6469   36.1074 N.am    1  LIG1       -0.2920
     17 C          45.1053   51.1325   36.3097 C.ar    1  LIG1        0.1514
     18 C          46.7159   51.7915   34.9677 C.ar    1  LIG1        0.2379
     19 N          45.3855   51.9539   35.2585 N.ar    1  LIG1       -0.3020
     20 N          46.1950   50.5203   36.6483 N.ar    1  LIG1       -0.1324
     21 N          47.1926   50.9299   35.8146 N.ar    1  LIG1       -0.1250
     22 C          47.5358   52.4594   33.8752 C.3     1  LIG1        0.4524
     23 F          48.8336   51.9595   33.8512 F       1  LIG1       -0.1632
     24 F          46.9960   52.2455   32.6111 F       1  LIG1       -0.1632
     25 F          47.6413   53.8309   34.0757 F       1  LIG1       -0.1632
     26 F          35.5957   47.2208   36.1464 F       1  LIG1       -0.2025
     27 F          35.9877   52.6043   36.7997 F       1  LIG1       -0.2051
     28 F          33.3424   48.7390   36.4750 F       1  LIG1       -0.2024
     29 C          44.7767   54.1949   34.1111 C.3     1  LIG1       -0.0427
     30 H          33.8425   51.2311   36.7607 H       1  LIG1        0.0676
     31 H          37.7524   48.5931   36.1932 H       1  LIG1        0.0651
     32 H          38.3700   52.2692   36.9099 H       1  LIG1        0.0369
     33 H          39.1321   50.5190   37.1977 H       1  LIG1        0.0369
     34 H          39.2283   50.1150   34.6407 H       1  LIG1        0.0858
     35 H          40.3478   52.9540   35.6948 H       1  LIG1        0.0414
     36 H          40.9081   52.0075   34.0542 H       1  LIG1        0.0414
     37 H          37.4347   51.6794   34.0313 H       1  LIG1        0.1997
     38 H          38.6349   52.0608   33.2905 H       1  LIG1        0.1997
     39 H          38.1679   52.8914   34.4040 H       1  LIG1        0.1997
     40 H          43.4898   49.8152   37.0602 H       1  LIG1        0.0545
     41 H          43.7526   51.4925   38.0365 H       1  LIG1        0.0545
     42 H          42.2827   53.5081   34.8767 H       1  LIG1        0.0485
     43 H          43.4603   53.6578   36.3960 H       1  LIG1        0.0485
     44 H          44.0084   52.1741   33.5989 H       1  LIG1        0.0541
     45 H          45.3730   54.7465   34.9943 H       1  LIG1        0.0250
     46 H          45.4682   54.1198   33.1350 H       1  LIG1        0.0250
     47 H          43.8175   54.8517   33.8123 H       1  LIG1        0.0250
@<TRIPOS>BOND
     1     1     2   ar
     2     1     6   ar
     3     1    26    1
     4     2     3   ar
     5     2    28    1
     6     3     4   ar
     7     3    30    1
     8     4     5   ar
     9     4    27    1
    10     5     6   ar
    11     5     7    1
    12     6    31    1
    13     7    32    1
    14     7    33    1
    15     8     7    1
    16     8     9    1
    17     8    11    1
    18     8    34    1
    19     9    10    1
    20     9    35    1
    21     9    36    1
    22    10    12    2
    23    10    16   am
    24    11    37    1
    25    11    38    1
    26    11    39    1
    27    13    16    1
    28    13    17    1
    29    13    40    1
    30    13    41    1
    31    14    15    1
    32    14    42    1
    33    14    43    1
    34    15    19    1
    35    15    29    1
    36    15    44    1
    37    16    14    1
    38    18    21   ar
    39    18    22    1
    40    19    17   ar
    41    19    18   ar
    42    20    17   ar
    43    20    21   ar
    44    22    23    1
    45    22    24    1
    46    22    25    1
    47    29    45    1
    48    29    46    1
    49    29    47    1
