bindingdb_similar_1x70_processed:3
 OpenBabel04261912203D

 41 43  0  0  1  0  0  0  0  0999 V2000
   35.5745   48.4776   36.0479 C   0  0  0  0  0  0  0  0  0  0  0  0
   34.4596   49.2415   36.3324 C   0  0  0  0  0  0  0  0  0  0  0  0
   34.6078   50.5671   36.6700 C   0  0  0  0  0  0  0  0  0  0  0  0
   35.8631   51.1339   36.7188 C   0  0  0  0  0  0  0  0  0  0  0  0
   36.9809   50.3748   36.4301 C   0  0  0  0  0  0  0  0  0  0  0  0
   36.8279   49.0456   36.1002 C   0  0  0  0  0  0  0  0  0  0  0  0
   38.3803   50.9763   36.4567 C   0  0  0  0  0  0  0  0  0  0  0  0
   39.0587   51.1064   35.0731 C   0  0  2  0  0  0  0  0  0  0  0  0
   40.4438   51.7767   35.1925 C   0  0  0  0  0  0  0  0  0  0  0  0
   41.4620   50.9617   35.9672 C   0  0  0  0  0  0  0  0  0  0  0  0
   38.2124   51.9333   34.1447 N   0  3  0  0  0  0  0  0  0  0  0  0
   41.1885   49.8481   36.3950 O   0  0  0  0  0  0  0  0  0  0  0  0
   43.6732   50.8880   36.9841 C   0  0  0  0  0  0  0  0  0  0  0  0
   43.0371   52.8736   35.5518 C   0  0  0  0  0  0  0  0  0  0  0  0
   44.2705   52.7181   34.6339 C   0  0  0  0  0  0  0  0  0  0  0  0
   42.6609   51.5617   36.1422 N   0  0  0  0  0  0  0  0  0  0  0  0
   45.0501   51.1249   36.3993 C   0  0  0  0  0  0  0  0  0  0  0  0
   46.6353   51.9313   35.1063 C   0  0  0  0  0  0  0  0  0  0  0  0
   45.2978   51.9570   35.3550 N   0  0  0  0  0  0  0  0  0  0  0  0
   46.1825   50.6187   36.7766 N   0  0  0  0  0  0  0  0  0  0  0  0
   47.1698   51.1213   35.9690 N   0  0  0  0  0  0  0  0  0  0  0  0
   35.4423   47.1852   35.7170 F   0  0  0  0  0  0  0  0  0  0  0  0
   35.9811   52.4287   37.0468 F   0  0  0  0  0  0  0  0  0  0  0  0
   33.2340   48.7004   36.2802 F   0  0  0  0  0  0  0  0  0  0  0  0
   39.1922   50.0115   34.6001 H   0  0  0  0  0  0  0  0  0  0  0  0
   33.8022   51.1217   36.8785 H   0  0  0  0  0  0  0  0  0  0  0  0
   37.6332   48.4905   35.8917 H   0  0  0  0  0  0  0  0  0  0  0  0
   38.3567   52.0607   36.9700 H   0  0  0  0  0  0  0  0  0  0  0  0
   39.0540   50.2661   37.1496 H   0  0  0  0  0  0  0  0  0  0  0  0
   40.2769   52.8372   35.7288 H   0  0  0  0  0  0  0  0  0  0  0  0
   40.8553   51.9254   34.0749 H   0  0  0  0  0  0  0  0  0  0  0  0
   37.3828   51.5770   34.0333 H   0  0  0  0  0  0  0  0  0  0  0  0
   38.5772   52.0011   33.3138 H   0  0  0  0  0  0  0  0  0  0  0  0
   38.0961   52.7810   34.4550 H   0  0  0  0  0  0  0  0  0  0  0  0
   43.4638   49.7071   37.0212 H   0  0  0  0  0  0  0  0  0  0  0  0
   43.6295   51.3352   38.0968 H   0  0  0  0  0  0  0  0  0  0  0  0
   42.2006   53.4511   34.9191 H   0  0  0  0  0  0  0  0  0  0  0  0
   43.3562   53.5888   36.4610 H   0  0  0  0  0  0  0  0  0  0  0  0
   43.9553   52.1159   33.6448 H   0  0  0  0  0  0  0  0  0  0  0  0
   44.6945   53.7987   34.3299 H   0  0  0  0  0  0  0  0  0  0  0  0
   47.1165   52.4409   34.3930 H   0  0  0  0  0  0  0  0  0  0  0  0
  1  2  2  0  0  0  0
  1  6  1  0  0  0  0
  1 22  1  0  0  0  0
  2  3  1  0  0  0  0
  2 24  1  0  0  0  0
  3  4  2  0  0  0  0
  3 26  1  0  0  0  0
  4  5  1  0  0  0  0
  4 23  1  0  0  0  0
  5  6  2  0  0  0  0
  5  7  1  0  0  0  0
  6 27  1  0  0  0  0
  7 28  1  0  0  0  0
  7 29  1  0  0  0  0
  8  7  1  0  0  0  0
  8  9  1  0  0  0  0
  8 11  1  0  0  0  0
  8 25  1  6  0  0  0
  9 10  1  0  0  0  0
  9 30  1  0  0  0  0
  9 31  1  0  0  0  0
 10 12  2  0  0  0  0
 10 16  1  0  0  0  0
 11 32  1  0  0  0  0
 11 33  1  0  0  0  0
 11 34  1  0  0  0  0
 13 16  1  0  0  0  0
 13 17  1  0  0  0  0
 13 35  1  0  0  0  0
 13 36  1  0  0  0  0
 14 15  1  0  0  0  0
 14 37  1  0  0  0  0
 14 38  1  0  0  0  0
 15 19  1  0  0  0  0
 15 39  1  0  0  0  0
 15 40  1  0  0  0  0
 16 14  1  0  0  0  0
 18 21  2  0  0  0  0
 18 41  1  0  0  0  0
 19 17  1  0  0  0  0
 19 18  1  0  0  0  0
 20 17  2  0  0  0  0
 20 21  1  0  0  0  0
M  CHG  1  11   1
M  END
>  <Mean(IC50 fixed2)>
68

>  <First(BindingDB Ligand Name)>
Triazolopiperazine Analogue 26

>  <Concatenate(Target Name Assigned by Curator or DataSource)>
Dipeptidyl Peptidase IV (DPP-IV), Dipeptidyl Peptidase IV (DPP-IV)

>  <First(Target Source Organism According to Curator or DataSource)>
Homo sapiens (human)

>  <First(Curation/DataSource)>
Curated from the literature by BindingDB

>  <First(Article DOI)>
10.1021/jm0493156

>  <Mean(PMID)>
17102186.5

>  <First(Authors)>
Kim, D; Wang, L; Beconi, M; Eiermann, GJ; Fisher, MH; He, H; Hickey, GJ; Kowalchick, JE; Leiting, B; Lyons, K; Marsilio, F; McCann, ME; Patel, RA; Petrov, A; Scapin, G; Patel, SB; Roy, RS; Wu, JK; Wyvratt, MJ; Zhang, BB; Zhu, L; Thornberry, NA; Weber, AE

>  <First(Institution)>
Merck Research Laboratories

>  <First(Link to Ligand in BindingDB)>
http://www.bindingdb.org/bind/chemsearch/marvin/MolStructure.jsp?monomerid=11161

>  <First(Link to Ligand-Target Pair in BindingDB)>
http://www.bindingdb.org/jsp/dbsearch/PrimarySearch_ki.jsp?energyterm=kJ/mole&tag=r21&monomerid=11161&enzyme=Dipeptidyl+Peptidase+IV+%28DPP-IV%29&column=ki&startPg=0&Increment=50&submit=Search

>  <Mean(PubChem CID)>
17543355.5

>  <Mean(PubChem SID)>
75308128

>  <First(ZINC ID of Ligand)>
ZINC13607030

>  <Concatenate*(UniProt (SwissProt) Entry Name of Target Chain)>
DPP4_HUMAN, DPP4_HUMAN

>  <Mean(Number of Protein Chains in Target (>1 implies a multichain complex))>
1

>  <Median(pIC50)>
7.16749108729376

>  <Journal>
JMedChem2005

>  <Activity Classes>
7.16749108729376

>  <Conformer_cresset>
2

>  <Similarity_cresset>
0.810

>  <Favorite_cresset>
false

>  <Activity (Median(pIC50))_cresset>
7.17

>  <LE (Median(pIC50))_cresset>
0.418

>  <LipE (Median(pIC50))_cresset>
5.4

>  <Tags_cresset>
training

>  <Confs_cresset>
2

>  <Conf#_cresset>
2

>  <Alns_cresset>
2

>  <MW_cresset>
340.3

>  <#Atoms_cresset>
24

>  <SlogP_cresset>
1.8

>  <TPSA_cresset>
78.7

>  <Flexibility_cresset>
4.9

>  <#RB_cresset>
5

>  <Rof5_cresset>
0

>  <Filename_cresset>
bindingdb_similar_1x70_processed.sdf

>  <Notes_cresset>
26

>  <Selected Alignment_cresset>
true

>  <Alignment Cluster Centre_cresset>
true

>  <_cresset_fieldpoints>
-5      47.845596      49.885971      37.174019    -13.4862
-5      41.177288      48.176697      37.097153     -7.1796
-5      32.888359      45.890045      35.720112     -2.6873
-6      42.060646      53.500645      32.724030     11.5807
-6      35.637798      50.603558      33.281105      5.5011
-6      46.073063      53.594322      32.593597      9.4171
-6      35.510036      53.021572      34.038834      4.8484
-7      35.365700      50.368454      33.232380     -2.5532
-7      37.083179      49.377693      32.906498     -2.4293
-7      39.994362      47.927246      35.995537     -2.5299
-7      40.902401      52.462734      38.366287     -2.6419
-7      40.217567      50.241428      32.149563     -1.5236
-7      39.962845      54.388672      33.490406     -1.8459
-7      41.917103      53.406593      32.315975     -1.6273
-7      43.012707      49.687183      33.906761     -2.6068
-7      38.419498      54.515198      36.253689     -2.0627
-7      45.894722      48.542656      38.241539     -1.0388
-7      43.439751      56.061874      35.098038     -1.1391
-7      45.672264      54.332825      37.297264     -1.7778
-7      46.064770      53.080502      31.945814     -1.1355
-7      47.795338      51.467094      38.339939     -1.2228
-7      47.338593      48.656353      36.028187     -1.2173
-7      48.148407      49.651558      37.549408     -1.1416
-7      36.043274      49.042850      39.471123     -2.1457
-8      39.493126      51.359665      35.925545      4.9481
-8      43.480461      53.301624      34.785984      3.7615
-8      44.174000      50.697044      37.306503      2.7890
-8      43.674107      51.978832      36.164516      2.6332
-8      35.716866      49.805161      36.381939      7.2643
-8      36.978439      51.208145      36.633121      5.6069

$$$$
