@<TRIPOS>MOLECULE
bindingdb_similar_1x70_processed:29
 44 46 0 0 0
SMALL
GASTEIGER

@<TRIPOS>ATOM
      1 C          34.4483   49.2720   36.2623 C.ar    1  LIG1        0.0117
      2 C          35.5449   48.4730   36.0265 C.ar    1  LIG1        0.1266
      3 C          36.8130   49.0038   36.1141 C.ar    1  LIG1       -0.0202
      4 C          36.9941   50.3293   36.4470 C.ar    1  LIG1       -0.0013
      5 C          35.8937   51.1224   36.7033 C.ar    1  LIG1        0.1619
      6 C          34.6203   50.5957   36.5968 C.ar    1  LIG1        0.1614
      7 C          38.4056   50.9025   36.4928 C.3     1  LIG1        0.0188
      8 C          39.0679   51.0755   35.1046 C.3     1  LIG1       -0.0118
      9 C          40.4498   51.7530   35.2212 C.3     1  LIG1        0.0673
     10 C          41.4826   50.9661   36.0048 C.2     1  LIG1        0.2214
     11 N          42.6654   51.5976   36.1769 N.am    1  LIG1       -0.2923
     12 O          41.2378   49.8502   36.4438 O.2     1  LIG1       -0.2754
     13 N          38.2091   51.9286   34.2099 N.4     1  LIG1        0.2213
     14 C          43.0258   52.8937   35.5464 C.3     1  LIG1        0.0332
     15 C          44.2397   52.6976   34.6106 C.3     1  LIG1        0.0422
     16 C          43.6866   50.9747   37.0455 C.3     1  LIG1        0.0746
     17 C          45.0505   51.1676   36.4158 C.ar    1  LIG1        0.1512
     18 N          45.2823   51.9478   35.3278 N.ar    1  LIG1       -0.3048
     19 C          46.6138   51.8785   35.0380 C.ar    1  LIG1        0.2376
     20 N          47.1539   51.0997   35.9267 N.ar    1  LIG1       -0.1250
     21 N          46.1833   50.6575   36.7855 N.ar    1  LIG1       -0.1324
     22 C          47.3410   52.5602   33.8915 C.3     1  LIG1        0.4524
     23 F          48.7095   52.3175   33.9384 F       1  LIG1       -0.1632
     24 F          46.8813   52.0989   32.6625 F       1  LIG1       -0.1632
     25 F          47.1666   53.9397   33.9133 F       1  LIG1       -0.1632
     26 F          36.0529   52.4084   37.0552 F       1  LIG1       -0.2022
     27 F          33.5470   51.3693   36.8150 F       1  LIG1       -0.2024
     28 F          35.3777   47.1844   35.7010 F       1  LIG1       -0.2054
     29 H          33.5272   48.8900   36.1903 H       1  LIG1        0.0676
     30 H          37.6072   48.4271   35.9229 H       1  LIG1        0.0650
     31 H          38.4125   51.9677   37.0464 H       1  LIG1        0.0369
     32 H          39.0788   50.1548   37.1463 H       1  LIG1        0.0369
     33 H          39.2012   49.9971   34.5956 H       1  LIG1        0.0858
     34 H          40.2673   52.8167   35.7463 H       1  LIG1        0.0414
     35 H          40.8595   51.8955   34.1021 H       1  LIG1        0.0414
     36 H          37.3869   51.5614   34.0827 H       1  LIG1        0.1997
     37 H          38.5745   52.0413   33.3838 H       1  LIG1        0.1997
     38 H          38.0788   52.7574   34.5629 H       1  LIG1        0.1997
     39 H          42.1776   53.4555   34.9149 H       1  LIG1        0.0482
     40 H          43.3659   53.6329   36.4279 H       1  LIG1        0.0482
     41 H          43.9005   52.0720   33.6441 H       1  LIG1        0.0508
     42 H          44.6530   53.7706   34.2686 H       1  LIG1        0.0508
     43 H          43.4746   49.7997   37.1635 H       1  LIG1        0.0545
     44 H          43.6659   51.4951   38.1260 H       1  LIG1        0.0545
@<TRIPOS>BOND
     1     1     2   ar
     2     1    29    1
     3     2     3   ar
     4     2    28    1
     5     3     4   ar
     6     3    30    1
     7     4     5   ar
     8     4     7    1
     9     5     6   ar
    10     5    26    1
    11     6     1   ar
    12     6    27    1
    13     7    31    1
    14     7    32    1
    15     8     7    1
    16     8     9    1
    17     8    13    1
    18     8    33    1
    19     9    10    1
    20     9    34    1
    21     9    35    1
    22    10    11   am
    23    10    12    2
    24    11    14    1
    25    11    16    1
    26    13    36    1
    27    13    37    1
    28    13    38    1
    29    14    15    1
    30    14    39    1
    31    14    40    1
    32    15    18    1
    33    15    41    1
    34    15    42    1
    35    16    43    1
    36    16    44    1
    37    17    16    1
    38    17    18   ar
    39    18    19   ar
    40    19    20   ar
    41    19    22    1
    42    20    21   ar
    43    21    17   ar
    44    22    23    1
    45    22    24    1
    46    22    25    1
