bindingdb_similar_1x70_processed:68
 OpenBabel04261912203D

 53 56  0  0  1  0  0  0  0  0999 V2000
   34.4698   49.2452   36.3235 C   0  0  0  0  0  0  0  0  0  0  0  0
   34.6269   50.5691   36.6647 C   0  0  0  0  0  0  0  0  0  0  0  0
   35.8863   51.1264   36.7198 C   0  0  0  0  0  0  0  0  0  0  0  0
   36.9988   50.3591   36.4334 C   0  0  0  0  0  0  0  0  0  0  0  0
   36.8370   49.0315   36.1007 C   0  0  0  0  0  0  0  0  0  0  0  0
   35.5797   48.4729   36.0423 C   0  0  0  0  0  0  0  0  0  0  0  0
   38.4007   50.9543   36.4623 C   0  0  0  0  0  0  0  0  0  0  0  0
   39.0651   51.1072   35.0743 C   0  0  2  0  0  0  0  0  0  0  0  0
   40.4479   51.7830   35.1870 C   0  0  0  0  0  0  0  0  0  0  0  0
   38.2049   51.9415   34.1650 N   0  3  0  0  0  0  0  0  0  0  0  0
   41.4733   50.9783   35.9636 C   0  0  0  0  0  0  0  0  0  0  0  0
   42.6556   51.6028   36.1660 N   0  0  0  0  0  0  0  0  0  0  0  0
   41.2179   49.8527   36.3706 O   0  0  0  0  0  0  0  0  0  0  0  0
   43.0268   52.9018   35.5389 C   0  0  0  0  0  0  0  0  0  0  0  0
   44.2555   52.7192   34.6206 C   0  0  0  0  0  0  0  0  0  0  0  0
   43.6538   50.9489   37.0454 C   0  0  1  0  0  0  0  0  0  0  0  0
   45.0242   51.1355   36.4283 C   0  0  0  0  0  0  0  0  0  0  0  0
   45.2473   51.9351   35.3641 N   0  0  0  0  0  0  0  0  0  0  0  0
   46.5704   51.8776   35.0770 N   0  0  0  0  0  0  0  0  0  0  0  0
   47.0909   51.0719   35.9601 C   0  0  0  0  0  0  0  0  0  0  0  0
   46.1619   50.5898   36.8132 N   0  0  0  0  0  0  0  0  0  0  0  0
   36.0147   52.4199   37.0507 F   0  0  0  0  0  0  0  0  0  0  0  0
   33.2402   48.7139   36.2641 F   0  0  0  0  0  0  0  0  0  0  0  0
   35.4388   47.1820   35.7077 F   0  0  0  0  0  0  0  0  0  0  0  0
   48.5633   50.7204   36.0157 C   0  0  0  0  0  0  0  0  0  0  0  0
   49.3520   51.8205   35.6984 F   0  0  0  0  0  0  0  0  0  0  0  0
   48.9435   50.2853   37.2806 F   0  0  0  0  0  0  0  0  0  0  0  0
   48.8710   49.7093   35.1130 F   0  0  0  0  0  0  0  0  0  0  0  0
   43.5989   51.4747   38.4939 C   0  0  0  0  0  0  0  0  0  0  0  0
   42.3401   51.1698   39.1832 N   0  0  0  0  0  0  0  0  0  0  0  0
   42.1940   50.1627   40.0810 N   0  0  0  0  0  0  0  0  0  0  0  0
   40.9553   50.2090   40.4795 C   0  0  0  0  0  0  0  0  0  0  0  0
   40.2731   51.2062   39.8830 N   0  0  0  0  0  0  0  0  0  0  0  0
   41.1425   51.7954   39.0835 C   0  0  0  0  0  0  0  0  0  0  0  0
   39.1998   50.0195   34.5858 H   0  0  0  0  0  0  0  0  0  0  0  0
   43.4357   49.7695   37.0762 H   0  0  0  0  0  0  0  0  0  0  0  0
   33.8246   51.1294   36.8707 H   0  0  0  0  0  0  0  0  0  0  0  0
   37.6388   48.4708   35.8938 H   0  0  0  0  0  0  0  0  0  0  0  0
   39.0807   50.2298   37.1342 H   0  0  0  0  0  0  0  0  0  0  0  0
   38.3872   52.0286   36.9969 H   0  0  0  0  0  0  0  0  0  0  0  0
   40.2755   52.8443   35.7202 H   0  0  0  0  0  0  0  0  0  0  0  0
   40.8526   51.9299   34.0667 H   0  0  0  0  0  0  0  0  0  0  0  0
   37.3761   51.5820   34.0575 H   0  0  0  0  0  0  0  0  0  0  0  0
   38.5604   52.0224   33.3312 H   0  0  0  0  0  0  0  0  0  0  0  0
   38.0872   52.7842   34.4879 H   0  0  0  0  0  0  0  0  0  0  0  0
   42.1889   53.4602   34.8916 H   0  0  0  0  0  0  0  0  0  0  0  0
   43.3484   53.6553   36.4147 H   0  0  0  0  0  0  0  0  0  0  0  0
   43.9322   52.1185   33.6333 H   0  0  0  0  0  0  0  0  0  0  0  0
   44.7086   53.7883   34.3178 H   0  0  0  0  0  0  0  0  0  0  0  0
   44.4878   50.9607   39.1152 H   0  0  0  0  0  0  0  0  0  0  0  0
   43.7711   52.6615   38.5069 H   0  0  0  0  0  0  0  0  0  0  0  0
   40.5582   49.5804   41.1482 H   0  0  0  0  0  0  0  0  0  0  0  0
   40.9473   52.5799   38.4949 H   0  0  0  0  0  0  0  0  0  0  0  0
  1  2  2  0  0  0  0
  1 23  1  0  0  0  0
  2  3  1  0  0  0  0
  2 37  1  0  0  0  0
  3  4  2  0  0  0  0
  3 22  1  0  0  0  0
  4  5  1  0  0  0  0
  4  7  1  0  0  0  0
  5  6  2  0  0  0  0
  5 38  1  0  0  0  0
  6  1  1  0  0  0  0
  6 24  1  0  0  0  0
  7 39  1  0  0  0  0
  7 40  1  0  0  0  0
  8  7  1  0  0  0  0
  8  9  1  0  0  0  0
  8 10  1  0  0  0  0
  8 35  1  6  0  0  0
  9 11  1  0  0  0  0
  9 41  1  0  0  0  0
  9 42  1  0  0  0  0
 10 43  1  0  0  0  0
 10 44  1  0  0  0  0
 10 45  1  0  0  0  0
 11 12  1  0  0  0  0
 11 13  2  0  0  0  0
 12 14  1  0  0  0  0
 12 16  1  0  0  0  0
 14 15  1  0  0  0  0
 14 46  1  0  0  0  0
 14 47  1  0  0  0  0
 15 18  1  0  0  0  0
 15 48  1  0  0  0  0
 15 49  1  0  0  0  0
 16 29  1  0  0  0  0
 16 36  1  1  0  0  0
 17 16  1  0  0  0  0
 17 18  1  0  0  0  0
 18 19  1  0  0  0  0
 19 20  2  0  0  0  0
 20 21  1  0  0  0  0
 20 25  1  0  0  0  0
 21 17  2  0  0  0  0
 25 26  1  0  0  0  0
 25 27  1  0  0  0  0
 25 28  1  0  0  0  0
 29 30  1  0  0  0  0
 29 50  1  0  0  0  0
 29 51  1  0  0  0  0
 30 31  1  0  0  0  0
 31 32  2  0  0  0  0
 32 33  1  0  0  0  0
 32 52  1  0  0  0  0
 33 34  2  0  0  0  0
 34 30  1  0  0  0  0
 34 53  1  0  0  0  0
M  CHG  1  10   1
M  END
>  <Mean(IC50 fixed2)>
3.5

>  <First(BindingDB Ligand Name)>
CHEMBL250353

>  <Concatenate(Target Name Assigned by Curator or DataSource)>
Dipeptidyl Peptidase IV (DPP-IV), Dipeptidyl Peptidase IV (DPP-IV)

>  <First(Target Source Organism According to Curator or DataSource)>
Homo sapiens

>  <First(Curation/DataSource)>
ChEMBL

>  <First(Article DOI)>
10.1016/j.bmcl.2007.07.100

>  <Mean(PMID)>
17827003

>  <First(Authors)>
Kowalchick, JE; Leiting, B; Pryor, KD; Marsilio, F; Wu, JK; He, H; Lyons, KA; Eiermann, GJ; Petrov, A; Scapin, G; Patel, RA; Thornberry, NA; Weber, AE; Kim, D

>  <First(Institution)>
Merck Research Laboratories<span class=m1fontSize>Curated by</span> <a href=http://www.ebi.ac.uk/chembl/>ChEMBL</a>

>  <First(Link to Ligand in BindingDB)>
http://www.bindingdb.org/bind/chemsearch/marvin/MolStructure.jsp?monomerid=50221453

>  <First(Link to Ligand-Target Pair in BindingDB)>
http://www.bindingdb.org/jsp/dbsearch/PrimarySearch_ki.jsp?energyterm=kJ/mole&tag=r21&monomerid=50221453&enzyme=Dipeptidyl+Peptidase+IV+%28DPP-IV%29&column=ki&startPg=0&Increment=50&submit=Search

>  <Mean(PubChem CID)>
27349654.5

>  <Mean(PubChem SID)>
104094105.5

>  <First(ZINC ID of Ligand)>
ZINC28959168

>  <Concatenate*(UniProt (SwissProt) Entry Name of Target Chain)>
DPP4_HUMAN, DPP4_HUMAN

>  <Mean(Number of Protein Chains in Target (>1 implies a multichain complex))>
1

>  <Median(pIC50)>
8.7

>  <Journal>
Kow BioorgMedChemLett2007

>  <Activity Classes>
8.7

>  <Conformer_cresset>
15

>  <Similarity_cresset>
0.827

>  <Favorite_cresset>
false

>  <Activity (Median(pIC50))_cresset>
8.7

>  <LE (Median(pIC50))_cresset>
0.358

>  <LipE (Median(pIC50))_cresset>
6

>  <Tags_cresset>
training

>  <Confs_cresset>
166

>  <Conf#_cresset>
15

>  <Alns_cresset>
10

>  <MW_cresset>
489.4

>  <#Atoms_cresset>
34

>  <SlogP_cresset>
2.7

>  <TPSA_cresset>
109.4

>  <Flexibility_cresset>
6.9

>  <#RB_cresset>
8

>  <Rof5_cresset>
0

>  <Filename_cresset>
bindingdb_similar_1x70_processed.sdf

>  <Notes_cresset>
37a
activity manually corrected

>  <Selected Alignment_cresset>
true

>  <Alignment Cluster Centre_cresset>
true

>  <_cresset_fieldpoints>
-5      38.310829      51.113037      39.874916     -5.4770
-5      41.225094      48.726562      37.845394     -9.6623
-5      46.435577      48.755901      37.842766     -2.8996
-5      32.882080      45.903023      35.759907     -2.9333
-5      49.419830      47.280262      36.950733     -1.5752
-6      42.914963      55.547661      34.585716     11.3530
-6      40.544014      54.323853      33.761169     11.8900
-6      44.998718      48.737553      38.647728      1.5503
-6      35.674301      50.584240      33.253700      5.4140
-6      41.245903      54.319042      37.189110     12.8000
-6      41.943615      53.512844      32.746063     12.0289
-7      37.061443      49.403130      32.907463     -2.4416
-7      40.004322      47.933018      36.133278     -2.6473
-7      39.942989      54.407406      33.511448     -1.8611
-7      43.080509      49.634163      34.005718     -2.6457
-7      39.269531      54.271717      37.508709     -2.1560
-7      38.486252      54.485622      36.373768     -2.1729
-7      35.389179      50.351814      33.223316     -2.5539
-7      43.336666      56.068428      34.946407     -1.1334
-7      41.893223      53.409946      32.293495     -1.6111
-7      46.125603      48.892323      38.557510     -2.1633
-7      37.755329      50.961479      39.648987     -2.6579
-7      36.380566      49.171875      39.493378     -2.2148
-7      41.515388      48.299782      37.956558     -2.4163
-7      52.073109      49.888958      36.117508     -1.1030
-7      45.884373      54.118221      37.198193     -2.4438
-7      43.508324      48.323597      39.236229     -1.9589
-7      43.666172      51.792442      41.666771     -1.5076
-7      46.788174      52.442268      38.952843     -2.1168
-7      46.271370      50.826149      32.861214     -2.0205
-7      40.996441      54.678261      37.286182     -2.1282
-8      35.730164      49.800526      36.379459      7.2644
-8      39.515076      51.356522      35.929470      4.9671
-8      44.258293      51.295185      37.674400      3.9496
-8      43.456535      53.318352      34.765141      3.7382
-8      37.004059      51.191864      36.636478      5.6131
-8      48.660160      50.697517      36.022240      5.5971
-8      40.412407      49.433647      41.301594      1.3008

$$$$
