@<TRIPOS>MOLECULE
bindingdb_similar_1x70_processed:51
 50 52 0 0 0
SMALL
GASTEIGER

@<TRIPOS>ATOM
      1 C          34.4718   49.2588   36.3407 C.ar    1  LIG1        0.1611
      2 C          34.6465   50.5789   36.6877 C.ar    1  LIG1        0.0119
      3 C          35.9127   51.1198   36.7451 C.ar    1  LIG1        0.1296
      4 C          37.0146   50.3398   36.4547 C.ar    1  LIG1       -0.0040
      5 C          36.8360   49.0167   36.1137 C.ar    1  LIG1       -0.0175
      6 C          35.5714   48.4744   36.0532 C.ar    1  LIG1        0.1588
      7 F          35.4138   47.1875   35.7112 F       1  LIG1       -0.2025
      8 F          33.2354   48.7425   36.2821 F       1  LIG1       -0.2024
      9 F          36.0569   52.4102   37.0808 F       1  LIG1       -0.2051
     10 C          38.4234   50.9201   36.4928 C.3     1  LIG1        0.0187
     11 C          39.0963   51.0908   35.1098 C.3     1  LIG1       -0.0118
     12 C          40.4761   51.7749   35.2323 C.3     1  LIG1        0.0673
     13 N          38.2337   51.9322   34.2082 N.4     1  LIG1        0.2213
     14 C          41.4974   50.9870   36.0316 C.2     1  LIG1        0.2218
     15 N          42.6910   51.6044   36.2152 N.am    1  LIG1       -0.2873
     16 C          43.0442   52.8943   35.5560 C.3     1  LIG1        0.0337
     17 C          44.2637   52.7130   34.6284 C.3     1  LIG1        0.0422
     18 C          43.7229   50.9937   37.1054 C.3     1  LIG1        0.0914
     19 N          46.2145   50.7140   36.8329 N.ar    1  LIG1       -0.1318
     20 C          45.0785   51.2174   36.4634 C.ar    1  LIG1        0.1570
     21 N          45.3060   51.9858   35.3652 N.ar    1  LIG1       -0.3044
     22 C          46.6373   51.9172   35.0762 C.ar    1  LIG1        0.2377
     23 N          47.1812   51.1481   35.9695 N.ar    1  LIG1       -0.1250
     24 C          47.3649   52.5911   33.9275 C.3     1  LIG1        0.4524
     25 F          47.1840   53.9694   33.9406 F       1  LIG1       -0.1632
     26 F          46.9111   52.1170   32.7018 F       1  LIG1       -0.1632
     27 F          48.7340   52.3531   33.9845 F       1  LIG1       -0.1632
     28 O          41.2122   49.8768   36.4586 O.2     1  LIG1       -0.2754
     29 C          43.6589   51.6676   38.4902 C.3     1  LIG1       -0.0366
     30 C          43.6122   49.4765   37.3638 C.3     1  LIG1       -0.0366
     31 H          33.8518   51.1488   36.8957 H       1  LIG1        0.0676
     32 H          37.6301   48.4473   35.9025 H       1  LIG1        0.0651
     33 H          38.4265   51.9887   37.0388 H       1  LIG1        0.0369
     34 H          39.0916   50.1803   37.1615 H       1  LIG1        0.0369
     35 H          39.2406   50.0074   34.6120 H       1  LIG1        0.0858
     36 H          40.2884   52.8423   35.7484 H       1  LIG1        0.0414
     37 H          40.8904   51.8959   34.1118 H       1  LIG1        0.0414
     38 H          37.4147   51.5552   34.0835 H       1  LIG1        0.1997
     39 H          38.6027   52.0420   33.3831 H       1  LIG1        0.1997
     40 H          38.1011   52.7603   34.5618 H       1  LIG1        0.1997
     41 H          42.1994   53.4201   34.8918 H       1  LIG1        0.0482
     42 H          43.3521   53.6905   36.3978 H       1  LIG1        0.0482
     43 H          43.9434   52.0781   33.6613 H       1  LIG1        0.0508
     44 H          44.6626   53.7903   34.2823 H       1  LIG1        0.0508
     45 H          42.5617   51.5128   38.9504 H       1  LIG1        0.0254
     46 H          43.8944   52.8407   38.4115 H       1  LIG1        0.0254
     47 H          44.4669   51.1703   39.2253 H       1  LIG1        0.0254
     48 H          44.5916   49.0754   37.9305 H       1  LIG1        0.0254
     49 H          43.5014   48.9031   36.3150 H       1  LIG1        0.0254
     50 H          42.6610   49.2428   38.0565 H       1  LIG1        0.0254
@<TRIPOS>BOND
     1     1     2   ar
     2     1     8    1
     3     2     3   ar
     4     2    31    1
     5     3     4   ar
     6     3     9    1
     7     4     5   ar
     8     4    10    1
     9     5     6   ar
    10     5    32    1
    11     6     1   ar
    12     6     7    1
    13    10    33    1
    14    10    34    1
    15    11    10    1
    16    11    12    1
    17    11    13    1
    18    11    35    1
    19    12    14    1
    20    12    36    1
    21    12    37    1
    22    13    38    1
    23    13    39    1
    24    13    40    1
    25    14    15   am
    26    14    28    2
    27    15    16    1
    28    15    18    1
    29    16    17    1
    30    16    41    1
    31    16    42    1
    32    17    21    1
    33    17    43    1
    34    17    44    1
    35    18    29    1
    36    18    30    1
    37    19    20   ar
    38    20    18    1
    39    20    21   ar
    40    21    22   ar
    41    22    23   ar
    42    22    24    1
    43    23    19   ar
    44    24    25    1
    45    24    26    1
    46    24    27    1
    47    29    45    1
    48    29    46    1
    49    29    47    1
    50    30    48    1
    51    30    49    1
    52    30    50    1
