bindingdb_similar_1x70_processed:69
 OpenBabel04261912203D

 56 59  0  0  1  0  0  0  0  0999 V2000
   34.4457   49.2636   36.3132 C   0  0  0  0  0  0  0  0  0  0  0  0
   34.6255   50.5815   36.6652 C   0  0  0  0  0  0  0  0  0  0  0  0
   35.8942   51.1174   36.7223 C   0  0  0  0  0  0  0  0  0  0  0  0
   36.9937   50.3343   36.4289 C   0  0  0  0  0  0  0  0  0  0  0  0
   36.8087   49.0131   36.0819 C   0  0  0  0  0  0  0  0  0  0  0  0
   35.5420   48.4760   36.0208 C   0  0  0  0  0  0  0  0  0  0  0  0
   35.3789   47.1909   35.6743 F   0  0  0  0  0  0  0  0  0  0  0  0
   33.2074   48.7524   36.2542 F   0  0  0  0  0  0  0  0  0  0  0  0
   36.0442   52.4059   37.0631 F   0  0  0  0  0  0  0  0  0  0  0  0
   38.4065   50.9058   36.4667 C   0  0  0  0  0  0  0  0  0  0  0  0
   39.0753   51.0735   35.0823 C   0  0  2  0  0  0  0  0  0  0  0  0
   40.4559   51.7520   35.2026 C   0  0  0  0  0  0  0  0  0  0  0  0
   38.2178   51.9280   34.1901 N   0  3  0  0  0  0  0  0  0  0  0  0
   41.4859   50.9716   35.9968 C   0  0  0  0  0  0  0  0  0  0  0  0
   42.6662   51.6058   36.1735 N   0  0  0  0  0  0  0  0  0  0  0  0
   43.0246   52.8952   35.5241 C   0  0  0  0  0  0  0  0  0  0  0  0
   44.2454   52.6922   34.6016 C   0  0  0  0  0  0  0  0  0  0  0  0
   43.6735   50.9762   37.0575 C   0  0  1  0  0  0  0  0  0  0  0  0
   46.1768   50.6664   36.7974 N   0  0  0  0  0  0  0  0  0  0  0  0
   45.0436   51.1772   36.4283 C   0  0  0  0  0  0  0  0  0  0  0  0
   45.2813   51.9482   35.3324 N   0  0  0  0  0  0  0  0  0  0  0  0
   46.6132   51.8774   35.0440 C   0  0  0  0  0  0  0  0  0  0  0  0
   47.1510   51.1031   35.9372 N   0  0  0  0  0  0  0  0  0  0  0  0
   47.3434   52.5553   33.8959 C   0  0  0  0  0  0  0  0  0  0  0  0
   47.1686   53.9349   33.9093 F   0  0  0  0  0  0  0  0  0  0  0  0
   48.7129   52.3154   33.9456 F   0  0  0  0  0  0  0  0  0  0  0  0
   46.8877   52.0881   32.6680 F   0  0  0  0  0  0  0  0  0  0  0  0
   41.2369   49.8584   36.4400 O   0  0  0  0  0  0  0  0  0  0  0  0
   43.5839   51.4739   38.5194 C   0  0  0  0  0  0  0  0  0  0  0  0
   42.2684   51.1955   39.2399 C   0  0  0  0  0  0  0  0  0  0  0  0
   42.1976   50.0971   40.0660 C   0  0  0  0  0  0  0  0  0  0  0  0
   41.0289   49.8206   40.7255 C   0  0  0  0  0  0  0  0  0  0  0  0
   39.9625   50.6582   40.5369 C   0  0  0  0  0  0  0  0  0  0  0  0
   40.1025   51.7407   39.7019 C   0  0  0  0  0  0  0  0  0  0  0  0
   41.2377   52.0408   39.0398 N   0  0  0  0  0  0  0  0  0  0  0  0
   33.8330   51.1530   36.8783 H   0  0  0  0  0  0  0  0  0  0  0  0
   37.6005   48.4413   35.8679 H   0  0  0  0  0  0  0  0  0  0  0  0
   38.4116   51.9727   37.0163 H   0  0  0  0  0  0  0  0  0  0  0  0
   39.0727   50.1597   37.1291 H   0  0  0  0  0  0  0  0  0  0  0  0
   39.2101   49.9933   34.5786 H   0  0  0  0  0  0  0  0  0  0  0  0
   40.2730   52.8186   35.7220 H   0  0  0  0  0  0  0  0  0  0  0  0
   40.8683   51.8873   34.0832 H   0  0  0  0  0  0  0  0  0  0  0  0
   37.3922   51.5658   34.0739 H   0  0  0  0  0  0  0  0  0  0  0  0
   38.5778   52.0290   33.3604 H   0  0  0  0  0  0  0  0  0  0  0  0
   38.0968   52.7611   34.5360 H   0  0  0  0  0  0  0  0  0  0  0  0
   42.1814   53.4406   34.8721 H   0  0  0  0  0  0  0  0  0  0  0  0
   43.3519   53.6614   36.3866 H   0  0  0  0  0  0  0  0  0  0  0  0
   43.9151   52.0630   33.6348 H   0  0  0  0  0  0  0  0  0  0  0  0
   44.6609   53.7638   34.2580 H   0  0  0  0  0  0  0  0  0  0  0  0
   43.4765   49.7923   37.0735 H   0  0  0  0  0  0  0  0  0  0  0  0
   44.4825   50.9611   39.1277 H   0  0  0  0  0  0  0  0  0  0  0  0
   43.7686   52.6593   38.5298 H   0  0  0  0  0  0  0  0  0  0  0  0
   42.9933   49.5038   40.1830 H   0  0  0  0  0  0  0  0  0  0  0  0
   40.9559   49.0250   41.3293 H   0  0  0  0  0  0  0  0  0  0  0  0
   39.0939   50.4847   41.0014 H   0  0  0  0  0  0  0  0  0  0  0  0
   39.3126   52.3415   39.5777 H   0  0  0  0  0  0  0  0  0  0  0  0
  1  2  2  0  0  0  0
  1  8  1  0  0  0  0
  2  3  1  0  0  0  0
  2 36  1  0  0  0  0
  3  4  2  0  0  0  0
  3  9  1  0  0  0  0
  4  5  1  0  0  0  0
  4 10  1  0  0  0  0
  5  6  2  0  0  0  0
  5 37  1  0  0  0  0
  6  1  1  0  0  0  0
  6  7  1  0  0  0  0
 10 38  1  0  0  0  0
 10 39  1  0  0  0  0
 11 10  1  0  0  0  0
 11 12  1  0  0  0  0
 11 13  1  0  0  0  0
 11 40  1  6  0  0  0
 12 14  1  0  0  0  0
 12 41  1  0  0  0  0
 12 42  1  0  0  0  0
 13 43  1  0  0  0  0
 13 44  1  0  0  0  0
 13 45  1  0  0  0  0
 14 15  1  0  0  0  0
 14 28  2  0  0  0  0
 15 16  1  0  0  0  0
 15 18  1  0  0  0  0
 16 17  1  0  0  0  0
 16 46  1  0  0  0  0
 16 47  1  0  0  0  0
 17 21  1  0  0  0  0
 17 48  1  0  0  0  0
 17 49  1  0  0  0  0
 18 29  1  0  0  0  0
 18 50  1  1  0  0  0
 19 20  2  0  0  0  0
 20 18  1  0  0  0  0
 20 21  1  0  0  0  0
 21 22  1  0  0  0  0
 22 23  2  0  0  0  0
 22 24  1  0  0  0  0
 23 19  1  0  0  0  0
 24 25  1  0  0  0  0
 24 26  1  0  0  0  0
 24 27  1  0  0  0  0
 29 30  1  0  0  0  0
 29 51  1  0  0  0  0
 29 52  1  0  0  0  0
 30 31  2  0  0  0  0
 31 32  1  0  0  0  0
 31 53  1  0  0  0  0
 32 33  2  0  0  0  0
 32 54  1  0  0  0  0
 33 34  1  0  0  0  0
 33 55  1  0  0  0  0
 34 35  2  0  0  0  0
 34 56  1  0  0  0  0
 35 30  1  0  0  0  0
M  CHG  1  13   1
M  END
>  <Mean(IC50 fixed2)>
66.2

>  <First(BindingDB Ligand Name)>
CHEMBL557176

>  <Concatenate(Target Name Assigned by Curator or DataSource)>
Dipeptidyl Peptidase IV (DPP-IV), Dipeptidyl Peptidase IV (DPP-IV)

>  <First(Target Source Organism According to Curator or DataSource)>
Homo sapiens

>  <First(Curation/DataSource)>
ChEMBL

>  <First(Article DOI)>
10.1021/jm070330v

>  <Mean(PMID)>
18201067

>  <First(Authors)>
Kim, D; Kowalchick, JE; Brockunier, LL; Parmee, ER; Eiermann, GJ; Fisher, MH; He, H; Leiting, B; Lyons, K; Scapin, G; Patel, SB; Petrov, A; Pryor, KD; Roy, RS; Wu, JK; Zhang, X; Wyvratt, MJ; Zhang, BB; Zhu, L; Thornberry, NA; Weber, AE

>  <First(Institution)>
Merck Research Laboratories<span class=m1fontSize>Curated by</span> <a href=http://www.ebi.ac.uk/chembl/>ChEMBL</a>

>  <First(Link to Ligand in BindingDB)>
http://www.bindingdb.org/bind/chemsearch/marvin/MolStructure.jsp?monomerid=50232518

>  <First(Link to Ligand-Target Pair in BindingDB)>
http://www.bindingdb.org/jsp/dbsearch/PrimarySearch_ki.jsp?energyterm=kJ/mole&tag=r21&monomerid=50232518&enzyme=Dipeptidyl+Peptidase+IV+%28DPP-IV%29&column=ki&startPg=0&Increment=50&submit=Search

>  <Mean(PubChem CID)>
44445066

>  <Mean(PubChem SID)>
104055530

>  <First(ZINC ID of Ligand)>
ZINC28968062

>  <Concatenate*(UniProt (SwissProt) Entry Name of Target Chain)>
DPP4_HUMAN, DPP4_HUMAN

>  <Mean(Number of Protein Chains in Target (>1 implies a multichain complex))>
1

>  <Median(pIC50)>
9.398

>  <Journal>
JMedChem2008

>  <Activity Classes>
9.398

>  <Conformer_cresset>
1

>  <Similarity_cresset>
0.947

>  <Favorite_cresset>
false

>  <Activity (Median(pIC50))_cresset>
9.4

>  <LE (Median(pIC50))_cresset>
0.376

>  <LipE (Median(pIC50))_cresset>
5.4

>  <Tags_cresset>
test

>  <Confs_cresset>
2

>  <Conf#_cresset>
1

>  <Alns_cresset>
2

>  <MW_cresset>
499.4

>  <#Atoms_cresset>
35

>  <SlogP_cresset>
4

>  <TPSA_cresset>
91.6

>  <Flexibility_cresset>
6.9

>  <#RB_cresset>
8

>  <Rof5_cresset>
0

>  <Filename_cresset>
bindingdb_similar_1x70_processed.sdf

>  <Notes_cresset>
49b

>  <Selected Alignment_cresset>
true

>  <Alignment Cluster Centre_cresset>
true

>  <_cresset_fieldpoints>
-5      40.976078      48.525410      37.617504     -9.5432
-5      47.860527      49.904736      37.168358    -11.8401
-5      32.786266      45.972809      35.618729     -2.5804
-5      41.371315      53.699184      38.179245     -3.4462
-6      35.654938      50.589222      33.275902      5.2368
-6      37.048489      51.784115      40.070217      4.8684
-6      32.740459      52.773693      35.742069      3.4919
-6      42.076370      53.391735      32.654942     10.9334
-6      42.638378      47.634235      42.051544      3.5434
-6      38.781616      48.711201      42.575996      4.0629
-7      35.373489      50.398361      33.225273     -2.5507
-7      36.995228      49.524025      39.554829     -2.8160
-7      40.011181      47.928371      36.358189     -2.7814
-7      37.083260      49.398506      32.894249     -2.4269
-7      40.363827      48.220249      37.788593     -3.1076
-7      38.542988      54.436287      36.512657     -2.2172
-7      39.953667      54.371044      33.512524     -1.8862
-7      40.152584      50.301170      32.098450     -1.5180
-7      41.939102      53.298111      32.258728     -1.6934
-7      44.522369      54.110458      31.672283     -1.5853
-7      41.141006      54.063072      37.747494     -3.0790
-7      47.242798      48.710983      35.609158     -1.5228
-7      49.054153      54.150684      31.141464     -1.1102
-7      45.719513      54.307392      37.179157     -2.6444
-7      43.127445      49.609306      34.054947     -2.8044
-7      44.892563      48.373421      38.797749     -2.0335
-7      42.367825      52.974274      42.048393     -1.6135
-8      35.714996      49.796066      36.370899      7.2665
-8      41.097366      50.556206      40.158619      5.5974
-8      37.014030      51.174370      36.647285      5.6234
-8      39.512573      51.314350      35.939262      4.9542
-8      43.465961      53.283894      34.736000      3.8057
-8      47.361462      52.599911      33.827278      5.6571
-8      43.084225      50.619137      39.211292      4.8285

$$$$
