bindingdb_similar_1x70_processed:54
 OpenBabel04261912203D

 50 52  0  0  1  0  0  0  0  0999 V2000
   34.4431   49.2616   36.3142 C   0  0  0  0  0  0  0  0  0  0  0  0
   34.6214   50.5801   36.6655 C   0  0  0  0  0  0  0  0  0  0  0  0
   35.8888   51.1173   36.7226 C   0  0  0  0  0  0  0  0  0  0  0  0
   36.9865   50.3325   36.4297 C   0  0  0  0  0  0  0  0  0  0  0  0
   36.8054   49.0111   36.0844 C   0  0  0  0  0  0  0  0  0  0  0  0
   35.5394   48.4737   36.0229 C   0  0  0  0  0  0  0  0  0  0  0  0
   35.3777   47.1886   35.6765 F   0  0  0  0  0  0  0  0  0  0  0  0
   33.2057   48.7494   36.2562 F   0  0  0  0  0  0  0  0  0  0  0  0
   36.0404   52.4057   37.0619 F   0  0  0  0  0  0  0  0  0  0  0  0
   38.3973   50.9035   36.4669 C   0  0  0  0  0  0  0  0  0  0  0  0
   39.0656   51.0664   35.0823 C   0  0  2  0  0  0  0  0  0  0  0  0
   40.4482   51.7368   35.2137 C   0  0  0  0  0  0  0  0  0  0  0  0
   38.2139   51.9249   34.1861 N   0  3  0  0  0  0  0  0  0  0  0  0
   41.4750   50.9571   36.0139 C   0  0  0  0  0  0  0  0  0  0  0  0
   42.6536   51.5952   36.1927 N   0  0  0  0  0  0  0  0  0  0  0  0
   43.0067   52.8923   35.5626 C   0  0  0  0  0  0  0  0  0  0  0  0
   44.1935   52.7048   34.5877 C   0  0  2  0  0  0  0  0  0  0  0  0
   43.6859   50.9697   37.0423 C   0  0  1  0  0  0  0  0  0  0  0  0
   46.1702   50.6793   36.7711 N   0  0  0  0  0  0  0  0  0  0  0  0
   45.0410   51.1947   36.4019 C   0  0  0  0  0  0  0  0  0  0  0  0
   45.2679   51.9843   35.3127 N   0  0  0  0  0  0  0  0  0  0  0  0
   46.6079   51.9011   35.0326 C   0  0  0  0  0  0  0  0  0  0  0  0
   47.1400   51.1164   35.9203 N   0  0  0  0  0  0  0  0  0  0  0  0
   47.3768   52.5562   33.8977 C   0  0  0  0  0  0  0  0  0  0  0  0
   46.9106   52.1078   32.6677 F   0  0  0  0  0  0  0  0  0  0  0  0
   47.2770   53.9414   33.9233 F   0  0  0  0  0  0  0  0  0  0  0  0
   48.7341   52.2549   33.9549 F   0  0  0  0  0  0  0  0  0  0  0  0
   41.2305   49.8408   36.4523 O   0  0  0  0  0  0  0  0  0  0  0  0
   44.4869   54.0809   33.9560 C   0  0  0  0  0  0  0  0  0  0  0  0
   43.6199   51.4861   38.4903 C   0  0  0  0  0  0  0  0  0  0  0  0
   33.8288   51.1514   36.8775 H   0  0  0  0  0  0  0  0  0  0  0  0
   37.5990   48.4412   35.8716 H   0  0  0  0  0  0  0  0  0  0  0  0
   38.3985   51.9697   37.0165 H   0  0  0  0  0  0  0  0  0  0  0  0
   39.0690   50.1609   37.1288 H   0  0  0  0  0  0  0  0  0  0  0  0
   39.1897   49.9856   34.5762 H   0  0  0  0  0  0  0  0  0  0  0  0
   40.2495   52.7971   35.7394 H   0  0  0  0  0  0  0  0  0  0  0  0
   40.8702   51.8824   34.0987 H   0  0  0  0  0  0  0  0  0  0  0  0
   37.3884   51.5630   34.0607 H   0  0  0  0  0  0  0  0  0  0  0  0
   38.5818   52.0290   33.3601 H   0  0  0  0  0  0  0  0  0  0  0  0
   38.0920   52.7573   34.5345 H   0  0  0  0  0  0  0  0  0  0  0  0
   42.1193   53.4520   34.9874 H   0  0  0  0  0  0  0  0  0  0  0  0
   43.3699   53.6356   36.4303 H   0  0  0  0  0  0  0  0  0  0  0  0
   43.8142   51.9838   33.7067 H   0  0  0  0  0  0  0  0  0  0  0  0
   43.4914   49.7864   37.0701 H   0  0  0  0  0  0  0  0  0  0  0  0
   43.4751   54.6231   33.6042 H   0  0  0  0  0  0  0  0  0  0  0  0
   45.0451   54.7854   34.7515 H   0  0  0  0  0  0  0  0  0  0  0  0
   45.1636   53.9367   32.9764 H   0  0  0  0  0  0  0  0  0  0  0  0
   42.5107   51.3306   38.9217 H   0  0  0  0  0  0  0  0  0  0  0  0
   44.3980   50.8712   39.1657 H   0  0  0  0  0  0  0  0  0  0  0  0
   43.9017   52.6518   38.5321 H   0  0  0  0  0  0  0  0  0  0  0  0
  1  2  2  0  0  0  0
  1  8  1  0  0  0  0
  2  3  1  0  0  0  0
  2 31  1  0  0  0  0
  3  4  2  0  0  0  0
  3  9  1  0  0  0  0
  4  5  1  0  0  0  0
  4 10  1  0  0  0  0
  5  6  2  0  0  0  0
  5 32  1  0  0  0  0
  6  1  1  0  0  0  0
  6  7  1  0  0  0  0
 10 33  1  0  0  0  0
 10 34  1  0  0  0  0
 11 10  1  0  0  0  0
 11 12  1  0  0  0  0
 11 13  1  0  0  0  0
 11 35  1  6  0  0  0
 12 14  1  0  0  0  0
 12 36  1  0  0  0  0
 12 37  1  0  0  0  0
 13 38  1  0  0  0  0
 13 39  1  0  0  0  0
 13 40  1  0  0  0  0
 14 15  1  0  0  0  0
 14 28  2  0  0  0  0
 15 16  1  0  0  0  0
 15 18  1  0  0  0  0
 16 17  1  0  0  0  0
 16 41  1  0  0  0  0
 16 42  1  0  0  0  0
 17 21  1  0  0  0  0
 17 29  1  0  0  0  0
 17 43  1  6  0  0  0
 18 30  1  0  0  0  0
 18 44  1  1  0  0  0
 19 20  2  0  0  0  0
 20 18  1  0  0  0  0
 20 21  1  0  0  0  0
 21 22  1  0  0  0  0
 22 23  2  0  0  0  0
 22 24  1  0  0  0  0
 23 19  1  0  0  0  0
 24 25  1  0  0  0  0
 24 26  1  0  0  0  0
 24 27  1  0  0  0  0
 29 45  1  0  0  0  0
 29 46  1  0  0  0  0
 29 47  1  0  0  0  0
 30 48  1  0  0  0  0
 30 49  1  0  0  0  0
 30 50  1  0  0  0  0
M  CHG  1  13   1
M  END
>  <Mean(IC50 fixed2)>
83

>  <First(BindingDB Ligand Name)>
CHEMBL536089

>  <Concatenate(Target Name Assigned by Curator or DataSource)>
Dipeptidyl Peptidase IV (DPP-IV), Dipeptidyl Peptidase IV (DPP-IV), Dipeptidyl Peptidase IV (DPP-IV), Dipeptidyl Peptidase IV (DPP-IV)

>  <First(Target Source Organism According to Curator or DataSource)>
Homo sapiens

>  <First(Curation/DataSource)>
ChEMBL

>  <First(Article DOI)>
10.1021/jm070330v

>  <Mean(PMID)>
18201067

>  <First(Authors)>
Kim, D; Kowalchick, JE; Brockunier, LL; Parmee, ER; Eiermann, GJ; Fisher, MH; He, H; Leiting, B; Lyons, K; Scapin, G; Patel, SB; Petrov, A; Pryor, KD; Roy, RS; Wu, JK; Zhang, X; Wyvratt, MJ; Zhang, BB; Zhu, L; Thornberry, NA; Weber, AE

>  <First(Institution)>
Merck Research Laboratories<span class=m1fontSize>Curated by</span> <a href=http://www.ebi.ac.uk/chembl/>ChEMBL</a>

>  <First(Link to Ligand in BindingDB)>
http://www.bindingdb.org/bind/chemsearch/marvin/MolStructure.jsp?monomerid=50232504

>  <First(Link to Ligand-Target Pair in BindingDB)>
http://www.bindingdb.org/jsp/dbsearch/PrimarySearch_ki.jsp?energyterm=kJ/mole&tag=r21&monomerid=50232504&enzyme=Dipeptidyl+Peptidase+IV+%28DPP-IV%29&column=ki&startPg=0&Increment=50&submit=Search

>  <Mean(PubChem CID)>
44445033

>  <Mean(PubChem SID)>
104055516

>  <First(ZINC ID of Ligand)>
ZINC28967422

>  <Concatenate*(UniProt (SwissProt) Entry Name of Target Chain)>
DPP4_HUMAN, DPP4_HUMAN, DPP4_HUMAN, DPP4_HUMAN

>  <Mean(Number of Protein Chains in Target (>1 implies a multichain complex))>
1

>  <Median(pIC50)>
7.94

>  <Journal>
JMedChem2008

>  <Activity Classes>
7.94

>  <Conformer_cresset>
1

>  <Similarity_cresset>
0.871

>  <Favorite_cresset>
false

>  <Activity (Median(pIC50))_cresset>
7.94

>  <LE (Median(pIC50))_cresset>
0.371

>  <LipE (Median(pIC50))_cresset>
4

>  <Tags_cresset>
training

>  <Confs_cresset>
2

>  <Conf#_cresset>
1

>  <Alns_cresset>
2

>  <MW_cresset>
436.4

>  <#Atoms_cresset>
30

>  <SlogP_cresset>
4

>  <TPSA_cresset>
78.7

>  <Flexibility_cresset>
4.9

>  <#RB_cresset>
6

>  <Rof5_cresset>
0

>  <Filename_cresset>
bindingdb_similar_1x70_processed.sdf

>  <Notes_cresset>
16c,d

>  <Selected Alignment_cresset>
true

>  <Alignment Cluster Centre_cresset>
true

>  <_cresset_fieldpoints>
-5      41.376923      48.216282      37.239155     -7.1908
-5      47.824970      49.902512      37.166634    -12.4204
-5      32.790474      45.952694      35.672775     -2.5967
-6      41.461273      53.625183      32.852386     11.7510
-6      35.687855      50.561459      33.255375      5.6387
-7      35.365265      50.387974      33.224735     -2.5491
-7      37.058807      49.393055      32.894787     -2.4232
-7      40.014824      47.921486      35.978901     -2.5656
-7      38.469337      54.470482      36.358807     -2.0665
-7      40.175968      54.332157      33.432621     -2.0505
-7      36.017300      48.987965      39.451778     -2.1455
-7      40.643650      52.930084      38.224789     -2.8960
-7      43.094242      49.560200      34.075603     -2.7801
-7      41.823112      53.131958      32.186558     -2.0743
-7      43.955219      52.378742      31.161823     -1.6424
-7      42.579121      56.111832      35.728348     -1.5313
-7      47.247665      48.738846      35.514664     -1.5466
-7      45.937592      48.782444      38.438118     -1.4597
-7      49.091778      54.118053      31.141939     -1.1403
-7      40.187119      50.312653      32.105736     -1.5273
-7      46.336849      54.879757      30.909346     -1.3264
-7      40.899006      49.361755      38.677067     -2.3199
-7      45.766388      54.288887      37.225407     -2.9252
-8      35.710865      49.795074      36.370449      7.2671
-8      39.504284      51.306416      35.938427      4.9671
-8      43.635639      53.561768      34.639767      4.9598
-8      37.007565      51.173130      36.639057      5.6211
-8      44.143982      51.240696      37.772709      4.1830
-8      47.385757      52.609097      33.827156      5.7011

$$$$
