bindingdb_similar_1x70_processed:28
 OpenBabel04261912203D

 44 46  0  0  1  0  0  0  0  0999 V2000
   34.4502   49.2519   36.3560 C   0  0  0  0  0  0  0  0  0  0  0  0
   34.6241   50.5987   36.5786 C   0  0  0  0  0  0  0  0  0  0  0  0
   35.8924   51.1363   36.6010 C   0  0  0  0  0  0  0  0  0  0  0  0
   36.9921   50.3262   36.4068 C   0  0  0  0  0  0  0  0  0  0  0  0
   36.8129   48.9788   36.1833 C   0  0  0  0  0  0  0  0  0  0  0  0
   35.5453   48.4409   36.1554 C   0  0  0  0  0  0  0  0  0  0  0  0
   38.3919   50.9244   36.4396 C   0  0  0  0  0  0  0  0  0  0  0  0
   39.0697   51.0971   35.0616 C   0  0  1  0  0  0  0  0  0  0  0  0
   38.2151   51.9664   34.1808 N   0  3  0  0  0  0  0  0  0  0  0  0
   40.4530   51.7663   35.2070 C   0  0  0  0  0  0  0  0  0  0  0  0
   41.4775   50.9669   35.9918 C   0  0  0  0  0  0  0  0  0  0  0  0
   41.2210   49.8502   36.4219 O   0  0  0  0  0  0  0  0  0  0  0  0
   42.6637   51.5897   36.1758 N   0  0  0  0  0  0  0  0  0  0  0  0
   43.0319   52.8940   35.5665 C   0  0  0  0  0  0  0  0  0  0  0  0
   44.2437   52.7069   34.6262 C   0  0  0  0  0  0  0  0  0  0  0  0
   43.6842   50.9525   37.0352 C   0  0  0  0  0  0  0  0  0  0  0  0
   45.0503   51.1498   36.4092 C   0  0  0  0  0  0  0  0  0  0  0  0
   45.2844   51.9441   35.3319 N   0  0  0  0  0  0  0  0  0  0  0  0
   46.6158   51.8755   35.0408 C   0  0  0  0  0  0  0  0  0  0  0  0
   47.1543   51.0841   35.9192 N   0  0  0  0  0  0  0  0  0  0  0  0
   46.1823   50.6330   36.7722 N   0  0  0  0  0  0  0  0  0  0  0  0
   47.3453   52.5701   33.9034 C   0  0  0  0  0  0  0  0  0  0  0  0
   46.8846   52.1263   32.6681 F   0  0  0  0  0  0  0  0  0  0  0  0
   48.7129   52.3226   33.9470 F   0  0  0  0  0  0  0  0  0  0  0  0
   47.1755   53.9499   33.9432 F   0  0  0  0  0  0  0  0  0  0  0  0
   36.1036   52.8404   36.8826 Cl  0  0  0  0  0  0  0  0  0  0  0  0
   35.3291   46.7422   35.8514 Cl  0  0  0  0  0  0  0  0  0  0  0  0
   33.5290   48.8642   36.3357 H   0  0  0  0  0  0  0  0  0  0  0  0
   33.8291   51.1873   36.7224 H   0  0  0  0  0  0  0  0  0  0  0  0
   37.6075   48.3887   36.0385 H   0  0  0  0  0  0  0  0  0  0  0  0
   38.3454   51.9985   36.9719 H   0  0  0  0  0  0  0  0  0  0  0  0
   39.0775   50.2143   37.1202 H   0  0  0  0  0  0  0  0  0  0  0  0
   39.2018   50.0243   34.5422 H   0  0  0  0  0  0  0  0  0  0  0  0
   37.3906   51.6058   34.0487 H   0  0  0  0  0  0  0  0  0  0  0  0
   38.5791   52.0911   33.3568 H   0  0  0  0  0  0  0  0  0  0  0  0
   38.0899   52.7896   34.5463 H   0  0  0  0  0  0  0  0  0  0  0  0
   40.2677   52.8204   35.7508 H   0  0  0  0  0  0  0  0  0  0  0  0
   40.8745   51.9298   34.0948 H   0  0  0  0  0  0  0  0  0  0  0  0
   42.1859   53.4733   34.9484 H   0  0  0  0  0  0  0  0  0  0  0  0
   43.3785   53.6153   36.4607 H   0  0  0  0  0  0  0  0  0  0  0  0
   43.9009   52.0943   33.6529 H   0  0  0  0  0  0  0  0  0  0  0  0
   44.6591   53.7829   34.2970 H   0  0  0  0  0  0  0  0  0  0  0  0
   43.4693   49.7770   37.1412 H   0  0  0  0  0  0  0  0  0  0  0  0
   43.6666   51.4616   38.1223 H   0  0  0  0  0  0  0  0  0  0  0  0
  1  2  2  0  0  0  0
  1 28  1  0  0  0  0
  2  3  1  0  0  0  0
  2 29  1  0  0  0  0
  3  4  2  0  0  0  0
  3 26  1  0  0  0  0
  4  5  1  0  0  0  0
  4  7  1  0  0  0  0
  5  6  2  0  0  0  0
  5 30  1  0  0  0  0
  6  1  1  0  0  0  0
  6 27  1  0  0  0  0
  7 31  1  0  0  0  0
  7 32  1  0  0  0  0
  8  7  1  0  0  0  0
  8  9  1  0  0  0  0
  8 10  1  0  0  0  0
  8 33  1  6  0  0  0
  9 34  1  0  0  0  0
  9 35  1  0  0  0  0
  9 36  1  0  0  0  0
 10 11  1  0  0  0  0
 10 37  1  0  0  0  0
 10 38  1  0  0  0  0
 11 12  2  0  0  0  0
 11 13  1  0  0  0  0
 13 14  1  0  0  0  0
 13 16  1  0  0  0  0
 14 15  1  0  0  0  0
 14 39  1  0  0  0  0
 14 40  1  0  0  0  0
 15 18  1  0  0  0  0
 15 41  1  0  0  0  0
 15 42  1  0  0  0  0
 16 43  1  0  0  0  0
 16 44  1  0  0  0  0
 17 16  1  0  0  0  0
 17 18  1  0  0  0  0
 18 19  1  0  0  0  0
 19 20  2  0  0  0  0
 19 22  1  0  0  0  0
 20 21  1  0  0  0  0
 21 17  2  0  0  0  0
 22 23  1  0  0  0  0
 22 24  1  0  0  0  0
 22 25  1  0  0  0  0
M  CHG  1   9   1
M  END
>  <Mean(IC50 fixed2)>
180

>  <First(BindingDB Ligand Name)>
CHEMBL232648

>  <Concatenate(Target Name Assigned by Curator or DataSource)>
Dipeptidyl Peptidase IV (DPP-IV)

>  <First(Target Source Organism According to Curator or DataSource)>
Homo sapiens

>  <First(Curation/DataSource)>
ChEMBL

>  <First(Article DOI)>
10.1016/j.bmcl.2007.03.098

>  <Mean(PMID)>
17434732

>  <First(Authors)>
Kim, D; Kowalchick, JE; Edmondson, SD; Mastracchio, A; Xu, J; Eiermann, GJ; Leiting, B; Wu, JK; Pryor, KD; Patel, RA; He, H; Lyons, KA; Thornberry, NA; Weber, AE

>  <First(Institution)>
Merck Research Laboratories<span class=m1fontSize>Curated by</span> <a href=http://www.ebi.ac.uk/chembl/>ChEMBL</a>

>  <First(Link to Ligand in BindingDB)>
http://www.bindingdb.org/bind/chemsearch/marvin/MolStructure.jsp?monomerid=50210664

>  <First(Link to Ligand-Target Pair in BindingDB)>
http://www.bindingdb.org/jsp/dbsearch/PrimarySearch_ki.jsp?energyterm=kJ/mole&tag=r21&monomerid=50210664&enzyme=Dipeptidyl+Peptidase+IV+%28DPP-IV%29&column=ki&startPg=0&Increment=50&submit=Search

>  <Mean(PubChem CID)>
44431205

>  <Mean(PubChem SID)>
104087151

>  <First(ZINC ID of Ligand)>
ZINC28820817

>  <Concatenate*(UniProt (SwissProt) Entry Name of Target Chain)>
DPP4_HUMAN

>  <Mean(Number of Protein Chains in Target (>1 implies a multichain complex))>
1

>  <Median(pIC50)>
6.74472749489669

>  <Journal>
BiorgMedChemLett2007

>  <Activity Classes>
6.74472749489669

>  <Conformer_cresset>
1

>  <Similarity_cresset>
0.837

>  <Favorite_cresset>
false

>  <Activity (Median(pIC50))_cresset>
6.74

>  <LE (Median(pIC50))_cresset>
0.349

>  <LipE (Median(pIC50))_cresset>
3.8

>  <Tags_cresset>
training

>  <Confs_cresset>
2

>  <Conf#_cresset>
1

>  <Alns_cresset>
2

>  <MW_cresset>
423.2

>  <#Atoms_cresset>
27

>  <SlogP_cresset>
3

>  <TPSA_cresset>
78.7

>  <Flexibility_cresset>
4.9

>  <#RB_cresset>
6

>  <Rof5_cresset>
0

>  <Filename_cresset>
bindingdb_similar_1x70_processed.sdf

>  <Notes_cresset>
38

>  <Selected Alignment_cresset>
true

>  <Alignment Cluster Centre_cresset>
true

>  <_cresset_fieldpoints>
-5      40.484249      48.219643      36.605488     -7.7913
-5      47.844391      49.857647      37.151386    -12.3855
-5      36.204731      49.019650      39.265343     -2.5348
-6      31.580919      50.488663      36.531979      4.0856
-6      42.055714      53.517899      32.750462     11.4601
-7      36.969662      49.407326      32.971630     -2.3726
-7      35.750546      50.001312      33.126064     -2.3681
-7      31.243738      50.323647      36.651478     -0.9865
-7      35.406952      53.066280      33.949074     -2.1176
-7      40.873215      52.470543      38.380482     -2.6155
-7      41.930050      53.419094      32.326649     -1.6938
-7      39.957260      54.427258      33.582794     -1.8777
-7      38.507080      54.509438      36.363609     -2.2310
-7      40.175053      50.396332      32.068668     -1.5065
-7      43.096119      49.649582      33.983337     -2.6996
-7      44.520233      54.175110      31.719860     -1.5815
-7      47.288658      48.715939      35.475616     -1.4944
-7      49.062683      54.203732      31.179232     -1.1104
-7      45.808571      54.457726      36.972107     -2.3038
-7      48.777496      49.465527      35.762127     -1.3591
-7      47.974495      51.955364      38.015419     -1.4877
-7      36.157417      49.392971      39.562119     -1.9319
-7      37.407238      51.682064      39.520958     -1.9357
-7      40.025963      47.939461      35.904701     -2.5138
-8      35.724766      49.790592      36.377453      7.2033
-8      35.521030      48.224094      36.109936      5.6118
-8      39.494507      51.335060      35.923470      4.9563
-8      36.863205      51.556030      36.627747      5.8194
-8      36.062634      51.389492      36.632755      5.7128
-8      43.469654      53.300461      34.778301      3.7892
-8      44.192684      50.791183      37.359310      2.7954
-8      47.367611      52.615795      33.834198      5.6559

$$$$
