@<TRIPOS>MOLECULE
bindingdb_similar_1x70_processed:9
 44 46 0 0 0
SMALL
GASTEIGER

@<TRIPOS>ATOM
      1 C          34.4473   49.2627   36.3124 C.ar    1  LIG1       -0.0590
      2 C          34.6246   50.5798   36.6655 C.ar    1  LIG1       -0.0262
      3 C          36.9920   50.3333   36.4274 C.ar    1  LIG1       -0.0069
      4 C          36.8065   49.0127   36.0814 C.ar    1  LIG1       -0.0557
      5 C          35.5394   48.4780   36.0209 C.ar    1  LIG1       -0.0613
      6 C          38.4032   50.9067   36.4674 C.3     1  LIG1        0.0186
      7 C          39.0767   51.0743   35.0856 C.3     1  LIG1       -0.0118
      8 C          40.4572   51.7544   35.2042 C.3     1  LIG1        0.0673
      9 C          41.4842   50.9703   35.9956 C.2     1  LIG1        0.2214
     10 N          38.2201   51.9273   34.1954 N.4     1  LIG1        0.2213
     11 N          42.6659   51.6012   36.1690 N.am    1  LIG1       -0.2923
     12 O          41.2349   49.8580   36.4398 O.2     1  LIG1       -0.2754
     13 C          43.0254   52.8936   35.5294 C.3     1  LIG1        0.0332
     14 C          44.2439   52.6922   34.6028 C.3     1  LIG1        0.0422
     15 C          43.6804   50.9777   37.0449 C.3     1  LIG1        0.0746
     16 C          45.0464   51.1724   36.4219 C.ar    1  LIG1        0.1512
     17 N          45.2818   51.9478   35.3312 N.ar    1  LIG1       -0.3048
     18 C          46.6139   51.8781   35.0454 C.ar    1  LIG1        0.2376
     19 N          47.1518   51.1032   35.9388 N.ar    1  LIG1       -0.1250
     20 N          46.1782   50.6647   36.7967 N.ar    1  LIG1       -0.1324
     21 C          47.3431   52.5560   33.8973 C.3     1  LIG1        0.4524
     22 F          48.7120   52.3168   33.9476 F       1  LIG1       -0.1632
     23 F          47.1662   53.9353   33.9115 F       1  LIG1       -0.1632
     24 F          46.8874   52.0887   32.6691 F       1  LIG1       -0.1632
     25 C          35.8928   51.1164   36.7224 C.ar    1  LIG1        0.1268
     26 F          36.0439   52.4045   37.0654 F       1  LIG1       -0.2052
     27 H          33.5263   48.8758   36.2683 H       1  LIG1        0.0618
     28 H          33.8317   51.1502   36.8801 H       1  LIG1        0.0646
     29 H          37.5978   48.4396   35.8682 H       1  LIG1        0.0621
     30 H          35.4127   47.5198   35.7646 H       1  LIG1        0.0618
     31 H          38.4098   51.9723   37.0194 H       1  LIG1        0.0369
     32 H          39.0734   50.1596   37.1227 H       1  LIG1        0.0369
     33 H          39.2058   49.9962   34.5732 H       1  LIG1        0.0858
     34 H          40.2718   52.8198   35.7249 H       1  LIG1        0.0414
     35 H          40.8678   51.8929   34.0848 H       1  LIG1        0.0414
     36 H          37.3926   51.5650   34.0852 H       1  LIG1        0.1997
     37 H          38.5811   52.0206   33.3648 H       1  LIG1        0.1997
     38 H          38.1064   52.7619   34.5426 H       1  LIG1        0.1997
     39 H          42.1817   53.4480   34.8858 H       1  LIG1        0.0482
     40 H          43.3579   53.6455   36.4029 H       1  LIG1        0.0482
     41 H          43.9122   52.0659   33.6341 H       1  LIG1        0.0508
     42 H          44.6607   53.7642   34.2626 H       1  LIG1        0.0508
     43 H          43.4685   49.8025   37.1596 H       1  LIG1        0.0545
     44 H          43.6508   51.4918   38.1281 H       1  LIG1        0.0545
@<TRIPOS>BOND
     1     1     2   ar
     2     1     5   ar
     3     1    27    1
     4     2    25   ar
     5     2    28    1
     6     3     4   ar
     7     3     6    1
     8     4     5   ar
     9     4    29    1
    10     5    30    1
    11     6    31    1
    12     6    32    1
    13     7     6    1
    14     7     8    1
    15     7    10    1
    16     7    33    1
    17     8     9    1
    18     8    34    1
    19     8    35    1
    20     9    11   am
    21     9    12    2
    22    10    36    1
    23    10    37    1
    24    10    38    1
    25    11    13    1
    26    11    15    1
    27    13    14    1
    28    13    39    1
    29    13    40    1
    30    14    17    1
    31    14    41    1
    32    14    42    1
    33    15    43    1
    34    15    44    1
    35    16    15    1
    36    16    17   ar
    37    17    18   ar
    38    18    19   ar
    39    18    21    1
    40    19    20   ar
    41    20    16   ar
    42    21    22    1
    43    21    23    1
    44    21    24    1
    45    25     3   ar
    46    25    26    1
