@<TRIPOS>MOLECULE
bindingdb_similar_1x70_processed:44
 47 49 0 0 0
SMALL
GASTEIGER

@<TRIPOS>ATOM
      1 C          34.4454   49.2658   36.3114 C.ar    1  LIG1        0.1611
      2 C          34.6266   50.5836   36.6638 C.ar    1  LIG1        0.0119
      3 C          35.8956   51.1181   36.7226 C.ar    1  LIG1        0.1296
      4 C          36.9939   50.3331   36.4298 C.ar    1  LIG1       -0.0040
      5 C          36.8080   49.0125   36.0826 C.ar    1  LIG1       -0.0175
      6 C          35.5411   48.4771   36.0202 C.ar    1  LIG1        0.1588
      7 C          38.4066   50.9022   36.4688 C.3     1  LIG1        0.0187
      8 C          39.0769   51.0710   35.0853 C.3     1  LIG1       -0.0118
      9 C          40.4570   51.7495   35.2092 C.3     1  LIG1        0.0673
     10 N          38.2206   51.9257   34.1906 N.4     1  LIG1        0.2213
     11 C          41.4863   50.9687   36.0025 C.2     1  LIG1        0.2216
     12 N          42.6688   51.6000   36.1722 N.am    1  LIG1       -0.2897
     13 O          41.2387   49.8552   36.4457 O.2     1  LIG1       -0.2754
     14 C          43.0226   52.8938   35.5225 C.3     1  LIG1        0.0350
     15 C          44.2368   52.7105   34.5857 C.3     1  LIG1        0.0593
     16 C          43.6835   50.9583   37.0386 C.3     1  LIG1        0.0827
     17 C          45.0458   51.1693   36.4163 C.ar    1  LIG1        0.1484
     18 N          45.2465   51.9599   35.3398 N.ar    1  LIG1       -0.2454
     19 N          46.5711   51.9404   35.0588 N.ar    1  LIG1       -0.1453
     20 C          47.1116   51.1617   35.9545 C.ar    1  LIG1        0.2548
     21 N          46.1967   50.6618   36.8102 N.ar    1  LIG1       -0.2061
     22 F          36.0465   52.4064   37.0633 F       1  LIG1       -0.2051
     23 F          33.2065   48.7558   36.2516 F       1  LIG1       -0.2024
     24 F          35.3770   47.1921   35.6733 F       1  LIG1       -0.2025
     25 C          48.5937   50.8772   36.0534 C.3     1  LIG1        0.4540
     26 F          49.1910   51.7821   36.9246 F       1  LIG1       -0.1631
     27 F          49.2290   50.9873   34.8202 F       1  LIG1       -0.1631
     28 F          48.8284   49.5964   36.5436 F       1  LIG1       -0.1631
     29 C          43.6062   51.4806   38.4836 C.3     1  LIG1       -0.0393
     30 H          33.8346   51.1562   36.8753 H       1  LIG1        0.0676
     31 H          37.5996   48.4401   35.8690 H       1  LIG1        0.0651
     32 H          38.4131   51.9675   37.0203 H       1  LIG1        0.0369
     33 H          39.0728   50.1565   37.1319 H       1  LIG1        0.0369
     34 H          39.2142   49.9904   34.5815 H       1  LIG1        0.0858
     35 H          40.2733   52.8164   35.7269 H       1  LIG1        0.0414
     36 H          40.8721   51.8819   34.0910 H       1  LIG1        0.0414
     37 H          37.3991   51.5565   34.0564 H       1  LIG1        0.1997
     38 H          38.5902   52.0457   33.3667 H       1  LIG1        0.1997
     39 H          38.0862   52.7525   34.5486 H       1  LIG1        0.1997
     40 H          42.1721   53.4461   34.8860 H       1  LIG1        0.0483
     41 H          43.3571   53.6539   36.3881 H       1  LIG1        0.0483
     42 H          43.9124   52.0804   33.6174 H       1  LIG1        0.0525
     43 H          44.6700   53.7766   34.2444 H       1  LIG1        0.0525
     44 H          43.4817   49.7762   37.0666 H       1  LIG1        0.0579
     45 H          42.4967   51.3108   38.9079 H       1  LIG1        0.0252
     46 H          44.3884   50.8799   39.1677 H       1  LIG1        0.0252
     47 H          43.8712   52.6504   38.5216 H       1  LIG1        0.0252
@<TRIPOS>BOND
     1     1     2   ar
     2     1    23    1
     3     2     3   ar
     4     2    30    1
     5     3     4   ar
     6     3    22    1
     7     4     5   ar
     8     4     7    1
     9     5     6   ar
    10     5    31    1
    11     6     1   ar
    12     6    24    1
    13     7    32    1
    14     7    33    1
    15     8     7    1
    16     8     9    1
    17     8    10    1
    18     8    34    1
    19     9    11    1
    20     9    35    1
    21     9    36    1
    22    10    37    1
    23    10    38    1
    24    10    39    1
    25    11    12   am
    26    11    13    2
    27    12    14    1
    28    12    16    1
    29    14    15    1
    30    14    40    1
    31    14    41    1
    32    15    18    1
    33    15    42    1
    34    15    43    1
    35    16    29    1
    36    16    44    1
    37    17    16    1
    38    17    18   ar
    39    18    19   ar
    40    19    20   ar
    41    20    21   ar
    42    20    25    1
    43    21    17   ar
    44    25    26    1
    45    25    27    1
    46    25    28    1
    47    29    45    1
    48    29    46    1
    49    29    47    1
