@<TRIPOS>MOLECULE
bindingdb_similar_1x70_processed:34
 50 52 0 0 0
SMALL
GASTEIGER

@<TRIPOS>ATOM
      1 C          34.4123   49.1222   36.3735 C.ar    1  LIG1       -0.0237
      2 C          34.5202   50.4759   36.5864 C.ar    1  LIG1       -0.0235
      3 C          35.7613   51.0749   36.6190 C.ar    1  LIG1        0.1269
      4 C          36.9044   50.3190   36.4399 C.ar    1  LIG1       -0.0042
      5 C          36.7890   48.9626   36.2284 C.ar    1  LIG1       -0.0204
      6 C          35.5480   48.3636   36.1935 C.ar    1  LIG1        0.1238
      7 C          38.2865   50.9606   36.4675 C.3     1  LIG1        0.0187
      8 C          38.9553   51.1364   35.0855 C.3     1  LIG1       -0.0118
      9 N          38.1145   52.0124   34.1989 N.4     1  LIG1        0.2213
     10 C          40.3495   51.7816   35.2333 C.3     1  LIG1        0.0673
     11 C          41.3620   50.8861   35.9229 C.2     1  LIG1        0.2214
     12 O          41.0859   49.7302   36.2166 O.2     1  LIG1       -0.2754
     13 N          42.5569   51.4636   36.1835 N.am    1  LIG1       -0.2923
     14 C          42.9281   52.8463   35.7851 C.3     1  LIG1        0.0332
     15 C          44.2484   52.8948   34.9828 C.3     1  LIG1        0.0424
     16 C          43.5587   50.6999   36.9557 C.3     1  LIG1        0.0746
     17 C          44.9452   50.9702   36.4092 C.ar    1  LIG1        0.1514
     18 N          45.2450   51.9661   35.5366 N.ar    1  LIG1       -0.3029
     19 C          46.5865   51.8923   35.2653 C.ar    1  LIG1        0.2419
     20 N          47.0556   50.8940   35.9611 N.ar    1  LIG1       -0.1223
     21 N          46.0402   50.3252   36.6708 N.ar    1  LIG1       -0.1322
     22 F          35.4451   47.0442   35.9835 F       1  LIG1       -0.2055
     23 F          35.8424   52.3976   36.8265 F       1  LIG1       -0.2052
     24 C          47.4044   52.7413   34.3613 C.2     1  LIG1        0.3769
     25 O          48.5674   52.4140   34.1862 O.2     1  LIG1       -0.2414
     26 O          46.8735   53.8289   33.7586 O.3     1  LIG1       -0.4593
     27 C          47.7370   54.6348   32.9315 C.3     1  LIG1        0.0901
     28 C          48.7002   55.4875   33.7755 C.3     1  LIG1       -0.0306
     29 H          39.0734   50.0609   34.5664 H       1  LIG1        0.0858
     30 H          33.5113   48.6891   36.3489 H       1  LIG1        0.0647
     31 H          33.6964   51.0276   36.7171 H       1  LIG1        0.0647
     32 H          37.6113   48.4089   36.0974 H       1  LIG1        0.0650
     33 H          38.2270   52.0351   36.9986 H       1  LIG1        0.0369
     34 H          38.9977   50.2719   37.1455 H       1  LIG1        0.0369
     35 H          37.2784   51.6734   34.0815 H       1  LIG1        0.1997
     36 H          38.4751   52.1070   33.3688 H       1  LIG1        0.1997
     37 H          38.0150   52.8485   34.5437 H       1  LIG1        0.1997
     38 H          40.2018   52.7942   35.8601 H       1  LIG1        0.0414
     39 H          40.7506   52.0208   34.1275 H       1  LIG1        0.0414
     40 H          42.1290   53.4503   35.1293 H       1  LIG1        0.0482
     41 H          43.1032   53.4622   36.7999 H       1  LIG1        0.0482
     42 H          44.0252   52.5840   33.8454 H       1  LIG1        0.0508
     43 H          44.6589   54.0213   35.0174 H       1  LIG1        0.0508
     44 H          43.3352   49.5237   36.8761 H       1  LIG1        0.0545
     45 H          43.5130   51.0354   38.1070 H       1  LIG1        0.0545
     46 H          48.3593   53.9291   32.1866 H       1  LIG1        0.0695
     47 H          47.0540   55.3787   32.2836 H       1  LIG1        0.0695
     48 H          48.0700   56.1955   34.5113 H       1  LIG1        0.0262
     49 H          49.3721   56.1657   33.0484 H       1  LIG1        0.0262
     50 H          49.4138   54.7730   34.4237 H       1  LIG1        0.0262
@<TRIPOS>BOND
     1     1     2   ar
     2     1    30    1
     3     2     3   ar
     4     2    31    1
     5     3     4   ar
     6     3    23    1
     7     4     5   ar
     8     4     7    1
     9     5     6   ar
    10     5    32    1
    11     6     1   ar
    12     6    22    1
    13     7    33    1
    14     7    34    1
    15     8     7    1
    16     8     9    1
    17     8    10    1
    18     8    29    1
    19     9    35    1
    20     9    36    1
    21     9    37    1
    22    10    11    1
    23    10    38    1
    24    10    39    1
    25    11    12    2
    26    11    13   am
    27    13    14    1
    28    13    16    1
    29    14    15    1
    30    14    40    1
    31    14    41    1
    32    15    18    1
    33    15    42    1
    34    15    43    1
    35    16    44    1
    36    16    45    1
    37    17    16    1
    38    17    18   ar
    39    18    19   ar
    40    19    20   ar
    41    19    24    1
    42    20    21   ar
    43    21    17   ar
    44    24    25    2
    45    24    26    1
    46    26    27    1
    47    27    28    1
    48    27    46    1
    49    27    47    1
    50    28    48    1
    51    28    49    1
    52    28    50    1
