@<TRIPOS>MOLECULE
bindingdb_similar_1x70_processed:66
 57 60 0 0 0
SMALL
GASTEIGER

@<TRIPOS>ATOM
      1 C          34.4478   49.2624   36.3100 C.ar    1  LIG1        0.1611
      2 C          34.6270   50.5807   36.6615 C.ar    1  LIG1        0.0119
      3 C          35.8957   51.1163   36.7202 C.ar    1  LIG1        0.1296
      4 C          36.9960   50.3333   36.4282 C.ar    1  LIG1       -0.0040
      5 C          36.8111   49.0116   36.0819 C.ar    1  LIG1       -0.0175
      6 C          35.5445   48.4748   36.0195 C.ar    1  LIG1        0.1588
      7 C          38.4077   50.9061   36.4678 C.3     1  LIG1        0.0187
      8 C          39.0779   51.0733   35.0840 C.3     1  LIG1       -0.0118
      9 C          40.4590   51.7516   35.2046 C.3     1  LIG1        0.0673
     10 N          38.2202   51.9263   34.1871 N.4     1  LIG1        0.2213
     11 C          41.4917   50.9753   35.9992 C.2     1  LIG1        0.2216
     12 N          42.6701   51.6145   36.1732 N.am    1  LIG1       -0.2891
     13 O          41.2488   49.8618   36.4477 O.2     1  LIG1       -0.2754
     14 C          43.0250   52.9035   35.5196 C.3     1  LIG1        0.0350
     15 C          44.2360   52.7071   34.5825 C.3     1  LIG1        0.0593
     16 C          43.6790   50.9928   37.0628 C.3     1  LIG1        0.0894
     17 C          45.0387   51.1749   36.4201 C.ar    1  LIG1        0.1490
     18 N          45.2407   51.9378   35.3238 N.ar    1  LIG1       -0.2454
     19 N          46.5452   51.8212   34.9764 N.ar    1  LIG1       -0.1453
     20 C          47.0770   51.0232   35.8591 C.ar    1  LIG1        0.2548
     21 N          46.1762   50.6130   36.7769 N.ar    1  LIG1       -0.2061
     22 F          36.0454   52.4051   37.0610 F       1  LIG1       -0.2051
     23 F          33.2098   48.7514   36.2496 F       1  LIG1       -0.2024
     24 F          35.3815   47.1898   35.6726 F       1  LIG1       -0.2025
     25 C          48.5202   50.5708   35.8196 C.3     1  LIG1        0.4540
     26 F          49.4036   51.6435   35.7717 F       1  LIG1       -0.1631
     27 F          48.8508   49.7966   36.9255 F       1  LIG1       -0.1631
     28 F          48.7402   49.7950   34.6872 F       1  LIG1       -0.1631
     29 C          43.6216   51.4888   38.5241 C.3     1  LIG1       -0.0019
     30 C          42.3154   51.1894   39.2465 C.ar    1  LIG1       -0.0450
     31 C          42.2063   50.0913   40.0726 C.ar    1  LIG1       -0.0558
     32 C          41.0221   49.8247   40.7209 C.ar    1  LIG1       -0.0262
     33 C          39.9373   50.6564   40.5453 C.ar    1  LIG1        0.1234
     34 C          40.0419   51.7544   39.7197 C.ar    1  LIG1       -0.0262
     35 C          41.2278   52.0187   39.0753 C.ar    1  LIG1       -0.0558
     36 F          38.7830   50.3999   41.1759 F       1  LIG1       -0.2055
     37 H          33.8343   51.1527   36.8731 H       1  LIG1        0.0676
     38 H          37.6030   48.4390   35.8696 H       1  LIG1        0.0651
     39 H          39.0759   50.1601   37.1286 H       1  LIG1        0.0369
     40 H          38.4106   51.9725   37.0185 H       1  LIG1        0.0369
     41 H          39.2109   49.9920   34.5794 H       1  LIG1        0.0858
     42 H          40.2735   52.8167   35.7243 H       1  LIG1        0.0414
     43 H          40.8730   51.8846   34.0863 H       1  LIG1        0.0414
     44 H          37.3965   51.5645   34.0617 H       1  LIG1        0.1997
     45 H          38.5824   52.0336   33.3604 H       1  LIG1        0.1997
     46 H          38.0920   52.7575   34.5324 H       1  LIG1        0.1997
     47 H          42.1731   53.4557   34.8857 H       1  LIG1        0.0483
     48 H          43.3661   53.6591   36.3861 H       1  LIG1        0.0483
     49 H          43.8974   52.0927   33.6091 H       1  LIG1        0.0525
     50 H          44.6800   53.7721   34.2559 H       1  LIG1        0.0525
     51 H          43.4813   49.8100   37.0907 H       1  LIG1        0.0585
     52 H          44.5210   50.9626   39.1205 H       1  LIG1        0.0335
     53 H          43.8200   52.6721   38.5434 H       1  LIG1        0.0335
     54 H          42.9913   49.4854   40.2014 H       1  LIG1        0.0621
     55 H          40.9484   49.0271   41.3195 H       1  LIG1        0.0646
     56 H          39.2562   52.3591   39.5892 H       1  LIG1        0.0646
     57 H          41.3010   52.8163   38.4765 H       1  LIG1        0.0621
@<TRIPOS>BOND
     1     1     2   ar
     2     1    23    1
     3     2     3   ar
     4     2    37    1
     5     3     4   ar
     6     3    22    1
     7     4     5   ar
     8     4     7    1
     9     5     6   ar
    10     5    38    1
    11     6     1   ar
    12     6    24    1
    13     7    39    1
    14     7    40    1
    15     8     7    1
    16     8     9    1
    17     8    10    1
    18     8    41    1
    19     9    11    1
    20     9    42    1
    21     9    43    1
    22    10    44    1
    23    10    45    1
    24    10    46    1
    25    11    12   am
    26    11    13    2
    27    12    14    1
    28    12    16    1
    29    14    15    1
    30    14    47    1
    31    14    48    1
    32    15    18    1
    33    15    49    1
    34    15    50    1
    35    16    29    1
    36    16    51    1
    37    17    16    1
    38    17    18   ar
    39    18    19   ar
    40    19    20   ar
    41    20    21   ar
    42    20    25    1
    43    21    17   ar
    44    25    26    1
    45    25    27    1
    46    25    28    1
    47    29    30    1
    48    29    52    1
    49    29    53    1
    50    30    31   ar
    51    31    32   ar
    52    31    54    1
    53    32    33   ar
    54    32    55    1
    55    33    34   ar
    56    33    36    1
    57    34    35   ar
    58    34    56    1
    59    35    30   ar
    60    35    57    1
