bindingdb_similar_1x70_processed:20
 OpenBabel04261912203D

 44 46  0  0  1  0  0  0  0  0999 V2000
   35.5402   48.4764   36.0200 C   0  0  0  0  0  0  0  0  0  0  0  0
   34.4466   49.2623   36.3128 C   0  0  0  0  0  0  0  0  0  0  0  0
   34.6244   50.5793   36.6658 C   0  0  0  0  0  0  0  0  0  0  0  0
   35.8927   51.1164   36.7227 C   0  0  0  0  0  0  0  0  0  0  0  0
   36.9922   50.3335   36.4278 C   0  0  0  0  0  0  0  0  0  0  0  0
   36.8078   49.0132   36.0817 C   0  0  0  0  0  0  0  0  0  0  0  0
   38.4039   50.9069   36.4676 C   0  0  0  0  0  0  0  0  0  0  0  0
   39.0767   51.0740   35.0853 C   0  0  2  0  0  0  0  0  0  0  0  0
   40.4568   51.7542   35.2042 C   0  0  0  0  0  0  0  0  0  0  0  0
   41.4844   50.9701   35.9960 C   0  0  0  0  0  0  0  0  0  0  0  0
   38.2195   51.9274   34.1950 N   0  3  0  0  0  0  0  0  0  0  0  0
   41.2350   49.8578   36.4403 O   0  0  0  0  0  0  0  0  0  0  0  0
   43.6807   50.9784   37.0449 C   0  0  0  0  0  0  0  0  0  0  0  0
   43.0256   52.8936   35.5298 C   0  0  0  0  0  0  0  0  0  0  0  0
   44.2441   52.6925   34.6029 C   0  0  0  0  0  0  0  0  0  0  0  0
   42.6658   51.6012   36.1693 N   0  0  0  0  0  0  0  0  0  0  0  0
   45.0467   51.1724   36.4217 C   0  0  0  0  0  0  0  0  0  0  0  0
   46.6139   51.8781   35.0454 C   0  0  0  0  0  0  0  0  0  0  0  0
   45.2818   51.9479   35.3309 N   0  0  0  0  0  0  0  0  0  0  0  0
   46.1781   50.6648   36.7971 N   0  0  0  0  0  0  0  0  0  0  0  0
   47.1516   51.1033   35.9388 N   0  0  0  0  0  0  0  0  0  0  0  0
   47.3430   52.5559   33.8973 C   0  0  0  0  0  0  0  0  0  0  0  0
   46.8874   52.0884   32.6689 F   0  0  0  0  0  0  0  0  0  0  0  0
   47.1662   53.9353   33.9113 F   0  0  0  0  0  0  0  0  0  0  0  0
   48.7121   52.3167   33.9475 F   0  0  0  0  0  0  0  0  0  0  0  0
   35.3763   47.1915   35.6726 F   0  0  0  0  0  0  0  0  0  0  0  0
   36.0438   52.4046   37.0650 F   0  0  0  0  0  0  0  0  0  0  0  0
   33.5253   48.8760   36.2686 H   0  0  0  0  0  0  0  0  0  0  0  0
   33.8316   51.1499   36.8802 H   0  0  0  0  0  0  0  0  0  0  0  0
   37.5995   48.4409   35.8683 H   0  0  0  0  0  0  0  0  0  0  0  0
   38.4093   51.9731   37.0187 H   0  0  0  0  0  0  0  0  0  0  0  0
   39.0738   50.1603   37.1246 H   0  0  0  0  0  0  0  0  0  0  0  0
   39.2066   49.9953   34.5743 H   0  0  0  0  0  0  0  0  0  0  0  0
   40.2724   52.8197   35.7253 H   0  0  0  0  0  0  0  0  0  0  0  0
   40.8683   51.8925   34.0851 H   0  0  0  0  0  0  0  0  0  0  0  0
   37.3952   51.5615   34.0813 H   0  0  0  0  0  0  0  0  0  0  0  0
   38.5821   52.0257   33.3668 H   0  0  0  0  0  0  0  0  0  0  0  0
   38.1006   52.7589   34.5447 H   0  0  0  0  0  0  0  0  0  0  0  0
   43.4688   49.8031   37.1596 H   0  0  0  0  0  0  0  0  0  0  0  0
   43.6510   51.4930   38.1281 H   0  0  0  0  0  0  0  0  0  0  0  0
   42.1819   53.4478   34.8860 H   0  0  0  0  0  0  0  0  0  0  0  0
   43.3580   53.6453   36.4035 H   0  0  0  0  0  0  0  0  0  0  0  0
   43.9123   52.0659   33.6345 H   0  0  0  0  0  0  0  0  0  0  0  0
   44.6602   53.7644   34.2624 H   0  0  0  0  0  0  0  0  0  0  0  0
  1  2  2  0  0  0  0
  1  6  1  0  0  0  0
  1 26  1  0  0  0  0
  2  3  1  0  0  0  0
  2 28  1  0  0  0  0
  3  4  2  0  0  0  0
  3 29  1  0  0  0  0
  4  5  1  0  0  0  0
  4 27  1  0  0  0  0
  5  6  2  0  0  0  0
  5  7  1  0  0  0  0
  6 30  1  0  0  0  0
  7 31  1  0  0  0  0
  7 32  1  0  0  0  0
  8  7  1  0  0  0  0
  8  9  1  0  0  0  0
  8 11  1  0  0  0  0
  8 33  1  6  0  0  0
  9 10  1  0  0  0  0
  9 34  1  0  0  0  0
  9 35  1  0  0  0  0
 10 12  2  0  0  0  0
 10 16  1  0  0  0  0
 11 36  1  0  0  0  0
 11 37  1  0  0  0  0
 11 38  1  0  0  0  0
 13 16  1  0  0  0  0
 13 17  1  0  0  0  0
 13 39  1  0  0  0  0
 13 40  1  0  0  0  0
 14 15  1  0  0  0  0
 14 41  1  0  0  0  0
 14 42  1  0  0  0  0
 15 19  1  0  0  0  0
 15 43  1  0  0  0  0
 15 44  1  0  0  0  0
 16 14  1  0  0  0  0
 18 21  2  0  0  0  0
 18 22  1  0  0  0  0
 19 17  1  0  0  0  0
 19 18  1  0  0  0  0
 20 17  2  0  0  0  0
 20 21  1  0  0  0  0
 22 23  1  0  0  0  0
 22 24  1  0  0  0  0
 22 25  1  0  0  0  0
M  CHG  1  11   1
M  END
>  <Mean(IC50 fixed2)>
27

>  <First(BindingDB Ligand Name)>
Triazolopiperazine Analogue 25

>  <Concatenate(Target Name Assigned by Curator or DataSource)>
Dipeptidyl Peptidase IV (DPP-IV), Dipeptidyl Peptidase IV (DPP-IV), Dipeptidyl Peptidase IV (DPP-IV), Dipeptidyl Peptidase IV (DPP-IV)

>  <First(Target Source Organism According to Curator or DataSource)>
Homo sapiens (human)

>  <First(Curation/DataSource)>
Curated from the literature by BindingDB

>  <First(Article DOI)>
10.1021/jm0493156

>  <Mean(PMID)>
17173594.25

>  <First(Authors)>
Kim, D; Wang, L; Beconi, M; Eiermann, GJ; Fisher, MH; He, H; Hickey, GJ; Kowalchick, JE; Leiting, B; Lyons, K; Marsilio, F; McCann, ME; Patel, RA; Petrov, A; Scapin, G; Patel, SB; Roy, RS; Wu, JK; Wyvratt, MJ; Zhang, BB; Zhu, L; Thornberry, NA; Weber, AE

>  <First(Institution)>
Merck Research Laboratories

>  <First(Link to Ligand in BindingDB)>
http://www.bindingdb.org/bind/chemsearch/marvin/MolStructure.jsp?monomerid=11160

>  <First(Link to Ligand-Target Pair in BindingDB)>
http://www.bindingdb.org/jsp/dbsearch/PrimarySearch_ki.jsp?energyterm=kJ/mole&tag=r21&monomerid=11160&enzyme=Dipeptidyl+Peptidase+IV+%28DPP-IV%29&column=ki&startPg=0&Increment=50&submit=Search

>  <Mean(PubChem CID)>
10237191.75

>  <Mean(PubChem SID)>
46513367

>  <First(ZINC ID of Ligand)>
ZINC01489477

>  <Concatenate*(UniProt (SwissProt) Entry Name of Target Chain)>
DPP4_HUMAN, DPP4_HUMAN, DPP4_HUMAN, DPP4_HUMAN

>  <Mean(Number of Protein Chains in Target (>1 implies a multichain complex))>
1

>  <Median(pIC50)>
7.56863623584101

>  <Journal>
JMedChem2005, BiorgMedChemLett2007

>  <Activity Classes>
7.56863623584101

>  <Conformer_cresset>
1

>  <Similarity_cresset>
0.848

>  <Favorite_cresset>
false

>  <Activity (Median(pIC50))_cresset>
7.57

>  <LE (Median(pIC50))_cresset>
0.393

>  <LipE (Median(pIC50))_cresset>
5.2

>  <Tags_cresset>
training

>  <Confs_cresset>
2

>  <Conf#_cresset>
1

>  <Alns_cresset>
2

>  <MW_cresset>
390.3

>  <#Atoms_cresset>
27

>  <SlogP_cresset>
2.4

>  <TPSA_cresset>
78.7

>  <Flexibility_cresset>
4.9

>  <#RB_cresset>
6

>  <Rof5_cresset>
0

>  <Filename_cresset>
bindingdb_similar_1x70_processed.sdf

>  <Notes_cresset>
25

>  <Selected Alignment_cresset>
true

>  <Alignment Cluster Centre_cresset>
true

>  <_cresset_fieldpoints>
-5      47.843948      49.904427      37.195000    -12.3536
-5      40.591404      48.196598      36.725792     -7.4949
-5      36.572094      48.677738      39.210762     -1.4913
-6      42.048939      53.424435      32.689457     11.4921
-6      31.598709      50.417610      36.613522      4.5224
-7      35.438419      50.355888      33.188473     -2.4195
-7      31.272932      50.243282      36.956909     -1.0149
-7      37.116043      49.392170      32.888145     -2.3984
-7      40.022816      47.927097      35.964695     -2.5462
-7      40.884331      52.518806      38.362213     -2.6349
-7      38.471191      54.474274      36.364605     -2.0530
-7      39.953220      54.370461      33.508377     -1.8745
-7      40.160122      50.302799      32.100388     -1.5150
-7      41.935913      53.322113      32.271069     -1.6895
-7      44.525093      54.123241      31.678486     -1.5845
-7      43.105801      49.624180      34.010399     -2.7038
-7      47.959377      52.013397      38.022289     -1.4861
-7      49.056534      54.146435      31.145025     -1.1104
-7      47.294659      48.727665      35.538544     -1.4941
-7      45.785015      54.495014      36.927086     -2.3052
-7      36.177937      49.065319      39.473080     -2.0486
-8      35.721466      49.800201      36.371281      7.2381
-8      39.513851      51.313805      35.935280      4.9344
-8      43.465263      53.282063      34.733841      3.7927
-8      44.185753      50.826702      37.379368      2.7917
-8      37.009243      51.171753      36.644138      5.6120
-8      47.363110      52.599968      33.826118      5.6563

$$$$
