@<TRIPOS>MOLECULE
bindingdb_similar_1x70_processed:71
 58 61 0 0 0
SMALL
GASTEIGER

@<TRIPOS>ATOM
      1 C          34.4446   49.2626   36.3144 C.ar    1  LIG1        0.1611
      2 C          34.6245   50.5806   36.6666 C.ar    1  LIG1        0.0119
      3 C          35.8931   51.1166   36.7238 C.ar    1  LIG1        0.1296
      4 C          36.9929   50.3338   36.4305 C.ar    1  LIG1       -0.0040
      5 C          36.8077   49.0126   36.0834 C.ar    1  LIG1       -0.0175
      6 C          35.5411   48.4754   36.0220 C.ar    1  LIG1        0.1588
      7 F          35.3778   47.1902   35.6753 F       1  LIG1       -0.2025
      8 F          33.2065   48.7514   36.2551 F       1  LIG1       -0.2024
      9 F          36.0430   52.4051   37.0649 F       1  LIG1       -0.2051
     10 C          38.4050   50.9048   36.4679 C.3     1  LIG1        0.0187
     11 C          39.0747   51.0740   35.0846 C.3     1  LIG1       -0.0118
     12 C          40.4565   51.7509   35.2058 C.3     1  LIG1        0.0673
     13 N          38.2165   51.9278   34.1920 N.4     1  LIG1        0.2213
     14 C          41.4882   50.9706   35.9984 C.2     1  LIG1        0.2217
     15 N          42.6719   51.6019   36.1701 N.am    1  LIG1       -0.2867
     16 C          43.0244   52.8937   35.5215 C.3     1  LIG1        0.0336
     17 C          44.2465   52.6941   34.6008 C.3     1  LIG1        0.0422
     18 C          43.6836   50.9732   37.0531 C.3     1  LIG1        0.1157
     19 N          46.1784   50.6657   36.7961 N.ar    1  LIG1       -0.1320
     20 C          45.0467   51.1723   36.4199 C.ar    1  LIG1        0.1572
     21 N          45.2822   51.9479   35.3295 N.ar    1  LIG1       -0.3045
     22 C          46.6146   51.8784   35.0455 C.ar    1  LIG1        0.2377
     23 N          47.1522   51.1044   35.9395 N.ar    1  LIG1       -0.1250
     24 C          47.3440   52.5562   33.8978 C.3     1  LIG1        0.4524
     25 F          47.1674   53.9356   33.9125 F       1  LIG1       -0.1632
     26 F          48.7127   52.3160   33.9489 F       1  LIG1       -0.1632
     27 F          46.8880   52.0886   32.6699 F       1  LIG1       -0.1632
     28 O          41.2367   49.8584   36.4428 O.2     1  LIG1       -0.2754
     29 C          43.6205   51.4930   38.5085 C.3     1  LIG1        0.1057
     30 C          42.3138   51.1818   39.2317 C.ar    1  LIG1       -0.0168
     31 C          42.1974   50.0814   40.0544 C.ar    1  LIG1       -0.0533
     32 C          41.0167   49.8223   40.7110 C.ar    1  LIG1       -0.0261
     33 C          39.9363   50.6601   40.5417 C.ar    1  LIG1        0.1234
     34 C          40.0432   51.7592   39.7182 C.ar    1  LIG1       -0.0261
     35 C          41.2289   52.0181   39.0704 C.ar    1  LIG1       -0.0533
     36 F          38.7840   50.4060   41.1758 F       1  LIG1       -0.2055
     37 O          44.7382   50.9981   39.2692 O.3     1  LIG1       -0.3849
     38 H          33.8318   51.1520   36.8798 H       1  LIG1        0.0676
     39 H          37.5997   48.4407   35.8694 H       1  LIG1        0.0651
     40 H          38.4105   51.9716   37.0177 H       1  LIG1        0.0369
     41 H          39.0720   50.1593   37.1307 H       1  LIG1        0.0369
     42 H          39.2097   49.9936   34.5801 H       1  LIG1        0.0858
     43 H          40.2730   52.8182   35.7230 H       1  LIG1        0.0414
     44 H          40.8668   51.8848   34.0860 H       1  LIG1        0.0414
     45 H          37.3945   51.5589   34.0696 H       1  LIG1        0.1997
     46 H          38.5817   52.0361   33.3656 H       1  LIG1        0.1997
     47 H          38.0883   52.7571   34.5445 H       1  LIG1        0.1997
     48 H          42.1807   53.4338   34.8667 H       1  LIG1        0.0482
     49 H          43.3441   53.6667   36.3810 H       1  LIG1        0.0482
     50 H          43.9150   52.0640   33.6349 H       1  LIG1        0.0508
     51 H          44.6603   53.7667   34.2589 H       1  LIG1        0.0508
     52 H          43.4834   49.7907   37.0800 H       1  LIG1        0.0611
     53 H          43.7513   52.6845   38.4779 H       1  LIG1        0.0667
     54 H          42.9799   49.4716   40.1808 H       1  LIG1        0.0622
     55 H          40.9423   49.0256   41.3102 H       1  LIG1        0.0646
     56 H          39.2598   52.3676   39.5909 H       1  LIG1        0.0646
     57 H          41.3045   52.8202   38.4779 H       1  LIG1        0.0622
     58 H          44.7175   49.9946   39.3413 H       1  LIG1        0.2103
@<TRIPOS>BOND
     1     1     2   ar
     2     1     8    1
     3     2     3   ar
     4     2    38    1
     5     3     4   ar
     6     3     9    1
     7     4     5   ar
     8     4    10    1
     9     5     6   ar
    10     5    39    1
    11     6     1   ar
    12     6     7    1
    13    10    40    1
    14    10    41    1
    15    11    10    1
    16    11    12    1
    17    11    13    1
    18    11    42    1
    19    12    14    1
    20    12    43    1
    21    12    44    1
    22    13    45    1
    23    13    46    1
    24    13    47    1
    25    14    15   am
    26    14    28    2
    27    15    16    1
    28    15    18    1
    29    16    17    1
    30    16    48    1
    31    16    49    1
    32    17    21    1
    33    17    50    1
    34    17    51    1
    35    18    20    1
    36    18    29    1
    37    18    52    1
    38    19    20   ar
    39    20    21   ar
    40    21    22   ar
    41    22    23   ar
    42    22    24    1
    43    23    19   ar
    44    24    25    1
    45    24    26    1
    46    24    27    1
    47    29    30    1
    48    29    37    1
    49    29    53    1
    50    30    31   ar
    51    31    32   ar
    52    31    54    1
    53    32    33   ar
    54    32    55    1
    55    33    34   ar
    56    33    36    1
    57    34    35   ar
    58    34    56    1
    59    35    30   ar
    60    35    57    1
    61    37    58    1
