bindingdb_similar_1x70_processed:34
 OpenBabel04261912203D

 50 52  0  0  1  0  0  0  0  0999 V2000
   34.4123   49.1222   36.3735 C   0  0  0  0  0  0  0  0  0  0  0  0
   34.5202   50.4759   36.5864 C   0  0  0  0  0  0  0  0  0  0  0  0
   35.7613   51.0749   36.6190 C   0  0  0  0  0  0  0  0  0  0  0  0
   36.9044   50.3190   36.4399 C   0  0  0  0  0  0  0  0  0  0  0  0
   36.7890   48.9626   36.2284 C   0  0  0  0  0  0  0  0  0  0  0  0
   35.5480   48.3636   36.1935 C   0  0  0  0  0  0  0  0  0  0  0  0
   38.2865   50.9606   36.4675 C   0  0  0  0  0  0  0  0  0  0  0  0
   38.9553   51.1364   35.0855 C   0  0  1  0  0  0  0  0  0  0  0  0
   38.1145   52.0124   34.1989 N   0  3  0  0  0  0  0  0  0  0  0  0
   40.3495   51.7816   35.2333 C   0  0  0  0  0  0  0  0  0  0  0  0
   41.3620   50.8861   35.9229 C   0  0  0  0  0  0  0  0  0  0  0  0
   41.0859   49.7302   36.2166 O   0  0  0  0  0  0  0  0  0  0  0  0
   42.5569   51.4636   36.1835 N   0  0  0  0  0  0  0  0  0  0  0  0
   42.9281   52.8463   35.7851 C   0  0  0  0  0  0  0  0  0  0  0  0
   44.2484   52.8948   34.9828 C   0  0  0  0  0  0  0  0  0  0  0  0
   43.5587   50.6999   36.9557 C   0  0  0  0  0  0  0  0  0  0  0  0
   44.9452   50.9702   36.4092 C   0  0  0  0  0  0  0  0  0  0  0  0
   45.2450   51.9661   35.5366 N   0  0  0  0  0  0  0  0  0  0  0  0
   46.5865   51.8923   35.2653 C   0  0  0  0  0  0  0  0  0  0  0  0
   47.0556   50.8940   35.9611 N   0  0  0  0  0  0  0  0  0  0  0  0
   46.0402   50.3252   36.6708 N   0  0  0  0  0  0  0  0  0  0  0  0
   35.4451   47.0442   35.9835 F   0  0  0  0  0  0  0  0  0  0  0  0
   35.8424   52.3976   36.8265 F   0  0  0  0  0  0  0  0  0  0  0  0
   47.4044   52.7413   34.3613 C   0  0  0  0  0  0  0  0  0  0  0  0
   48.5674   52.4140   34.1862 O   0  0  0  0  0  0  0  0  0  0  0  0
   46.8735   53.8289   33.7586 O   0  0  0  0  0  0  0  0  0  0  0  0
   47.7370   54.6348   32.9315 C   0  0  0  0  0  0  0  0  0  0  0  0
   48.7002   55.4875   33.7755 C   0  0  0  0  0  0  0  0  0  0  0  0
   39.0734   50.0609   34.5664 H   0  0  0  0  0  0  0  0  0  0  0  0
   33.5113   48.6891   36.3489 H   0  0  0  0  0  0  0  0  0  0  0  0
   33.6964   51.0276   36.7171 H   0  0  0  0  0  0  0  0  0  0  0  0
   37.6113   48.4089   36.0974 H   0  0  0  0  0  0  0  0  0  0  0  0
   38.2270   52.0351   36.9986 H   0  0  0  0  0  0  0  0  0  0  0  0
   38.9977   50.2719   37.1455 H   0  0  0  0  0  0  0  0  0  0  0  0
   37.2784   51.6734   34.0815 H   0  0  0  0  0  0  0  0  0  0  0  0
   38.4751   52.1070   33.3688 H   0  0  0  0  0  0  0  0  0  0  0  0
   38.0150   52.8485   34.5437 H   0  0  0  0  0  0  0  0  0  0  0  0
   40.2018   52.7942   35.8601 H   0  0  0  0  0  0  0  0  0  0  0  0
   40.7506   52.0208   34.1275 H   0  0  0  0  0  0  0  0  0  0  0  0
   42.1290   53.4503   35.1293 H   0  0  0  0  0  0  0  0  0  0  0  0
   43.1032   53.4622   36.7999 H   0  0  0  0  0  0  0  0  0  0  0  0
   44.0252   52.5840   33.8454 H   0  0  0  0  0  0  0  0  0  0  0  0
   44.6589   54.0213   35.0174 H   0  0  0  0  0  0  0  0  0  0  0  0
   43.3352   49.5237   36.8761 H   0  0  0  0  0  0  0  0  0  0  0  0
   43.5130   51.0354   38.1070 H   0  0  0  0  0  0  0  0  0  0  0  0
   48.3593   53.9291   32.1866 H   0  0  0  0  0  0  0  0  0  0  0  0
   47.0540   55.3787   32.2836 H   0  0  0  0  0  0  0  0  0  0  0  0
   48.0700   56.1955   34.5113 H   0  0  0  0  0  0  0  0  0  0  0  0
   49.3721   56.1657   33.0484 H   0  0  0  0  0  0  0  0  0  0  0  0
   49.4138   54.7730   34.4237 H   0  0  0  0  0  0  0  0  0  0  0  0
  1  2  2  0  0  0  0
  1 30  1  0  0  0  0
  2  3  1  0  0  0  0
  2 31  1  0  0  0  0
  3  4  2  0  0  0  0
  3 23  1  0  0  0  0
  4  5  1  0  0  0  0
  4  7  1  0  0  0  0
  5  6  2  0  0  0  0
  5 32  1  0  0  0  0
  6  1  1  0  0  0  0
  6 22  1  0  0  0  0
  7 33  1  0  0  0  0
  7 34  1  0  0  0  0
  8  7  1  0  0  0  0
  8  9  1  0  0  0  0
  8 10  1  0  0  0  0
  8 29  1  6  0  0  0
  9 35  1  0  0  0  0
  9 36  1  0  0  0  0
  9 37  1  0  0  0  0
 10 11  1  0  0  0  0
 10 38  1  0  0  0  0
 10 39  1  0  0  0  0
 11 12  2  0  0  0  0
 11 13  1  0  0  0  0
 13 14  1  0  0  0  0
 13 16  1  0  0  0  0
 14 15  1  0  0  0  0
 14 40  1  0  0  0  0
 14 41  1  0  0  0  0
 15 18  1  0  0  0  0
 15 42  1  0  0  0  0
 15 43  1  0  0  0  0
 16 44  1  0  0  0  0
 16 45  1  0  0  0  0
 17 16  1  0  0  0  0
 17 18  1  0  0  0  0
 18 19  1  0  0  0  0
 19 20  2  0  0  0  0
 19 24  1  0  0  0  0
 20 21  1  0  0  0  0
 21 17  2  0  0  0  0
 24 25  2  0  0  0  0
 24 26  1  0  0  0  0
 26 27  1  0  0  0  0
 27 28  1  0  0  0  0
 27 46  1  0  0  0  0
 27 47  1  0  0  0  0
 28 48  1  0  0  0  0
 28 49  1  0  0  0  0
 28 50  1  0  0  0  0
M  CHG  1   9   1
M  END
>  <Mean(IC50 fixed2)>
190

>  <First(BindingDB Ligand Name)>
CHEMBL389600

>  <Concatenate(Target Name Assigned by Curator or DataSource)>
Dipeptidyl Peptidase IV (DPP-IV)

>  <First(Target Source Organism According to Curator or DataSource)>
Homo sapiens

>  <First(Curation/DataSource)>
ChEMBL

>  <First(Article DOI)>
10.1016/j.bmcl.2007.03.098

>  <Mean(PMID)>
17434732

>  <First(Authors)>
Kim, D; Kowalchick, JE; Edmondson, SD; Mastracchio, A; Xu, J; Eiermann, GJ; Leiting, B; Wu, JK; Pryor, KD; Patel, RA; He, H; Lyons, KA; Thornberry, NA; Weber, AE

>  <First(Institution)>
Merck Research Laboratories<span class=m1fontSize>Curated by</span> <a href=http://www.ebi.ac.uk/chembl/>ChEMBL</a>

>  <First(Link to Ligand in BindingDB)>
http://www.bindingdb.org/bind/chemsearch/marvin/MolStructure.jsp?monomerid=50210651

>  <First(Link to Ligand-Target Pair in BindingDB)>
http://www.bindingdb.org/jsp/dbsearch/PrimarySearch_ki.jsp?energyterm=kJ/mole&tag=r21&monomerid=50210651&enzyme=Dipeptidyl+Peptidase+IV+%28DPP-IV%29&column=ki&startPg=0&Increment=50&submit=Search

>  <Mean(PubChem CID)>
44431215

>  <Mean(PubChem SID)>
104087138

>  <First(ZINC ID of Ligand)>
ZINC28820848

>  <Concatenate*(UniProt (SwissProt) Entry Name of Target Chain)>
DPP4_HUMAN

>  <Mean(Number of Protein Chains in Target (>1 implies a multichain complex))>
1

>  <Median(pIC50)>
6.72124639904717

>  <Journal>
BiorgMedChemLett2007

>  <Activity Classes>
6.72124639904717

>  <Conformer_cresset>
13

>  <Similarity_cresset>
0.788

>  <Favorite_cresset>
false

>  <Activity (Median(pIC50))_cresset>
6.72

>  <LE (Median(pIC50))_cresset>
0.336

>  <LipE (Median(pIC50))_cresset>
5.1

>  <Tags_cresset>
training

>  <Confs_cresset>
16

>  <Conf#_cresset>
13

>  <Alns_cresset>
10

>  <MW_cresset>
394.4

>  <#Atoms_cresset>
28

>  <SlogP_cresset>
1.6

>  <TPSA_cresset>
105

>  <Flexibility_cresset>
6.1

>  <#RB_cresset>
7

>  <Rof5_cresset>
0

>  <Filename_cresset>
bindingdb_similar_1x70_processed.sdf

>  <Notes_cresset>
45

>  <Selected Alignment_cresset>
true

>  <Alignment Cluster Centre_cresset>
true

>  <_cresset_fieldpoints>
-5      40.304615      48.114140      36.208828     -7.4009
-5      36.251732      48.816219      39.354183     -1.2698
-5      47.744095      49.412502      36.833622    -12.3106
-5      37.971592      45.517284      36.177040     -1.3973
-6      31.507616      50.197514      36.525501      4.5039
-6      41.973061      53.759537      32.993896     10.9266
-6      40.605450      54.409927      33.890247     10.6942
-6      35.625420      50.738873      33.103607      4.3112
-7      36.053860      49.341244      39.580494     -2.0503
-7      31.164211      50.069534      36.476322     -1.0152
-7      40.822598      52.190319      38.458729     -2.7379
-7      41.486118      48.910622      33.863342     -1.8773
-7      45.705376      52.146873      31.895271     -2.0028
-7      39.880810      54.532104      33.766869     -1.8228
-7      40.128380      50.393398      32.132931     -1.5101
-7      43.003181      50.128582      33.639229     -2.6761
-7      38.381866      54.511288      36.400368     -2.0468
-7      41.936752      53.616795      32.538727     -1.6198
-7      47.043304      48.508766      35.419937     -1.2814
-7      45.731152      47.950691      37.427773     -1.0590
-7      36.656826      49.522953      33.039333     -2.5227
-7      39.904125      47.853657      35.684395     -2.4610
-7      35.804470      49.915752      33.162003     -2.5344
-7      50.683128      52.882423      32.957306     -1.5189
-7      49.173927      56.011105      30.347448     -1.0126
-7      44.467190      54.858524      32.447105     -1.7706
-7      45.625061      54.101974      37.647167     -2.0222
-7      46.588360      55.009010      36.389374     -2.3944
-7      45.389290      56.322788      34.407856     -1.8054
-7      47.750381      50.866909      38.304379     -1.2789
-8      35.660954      49.720985      36.402504      7.2374
-8      36.880859      51.179001      36.566608      5.6175
-8      39.405750      51.341084      35.956364      4.9824
-8      43.677673      51.981392      36.291897      2.6445
-8      44.059689      50.498035      37.282246      2.7879
-8      43.423092      53.420559      35.171402      3.7974
-8      48.469795      55.342541      33.174011      3.9405
-8      47.027863      53.009220      35.573219      1.3408

$$$$
