@<TRIPOS>MOLECULE
Copy of bindingdb_similar_1x70_processed:65
 57 60 0 0 0
SMALL
GASTEIGER

@<TRIPOS>ATOM
      1 C          34.4448   49.2630   36.3129 C.ar    1  LIG1        0.1611
      2 C          34.6248   50.5806   36.6669 C.ar    1  LIG1        0.0119
      3 C          35.8934   51.1164   36.7233 C.ar    1  LIG1        0.1296
      4 C          36.9924   50.3336   36.4282 C.ar    1  LIG1       -0.0040
      5 C          36.8076   49.0122   36.0819 C.ar    1  LIG1       -0.0175
      6 C          35.5407   48.4755   36.0200 C.ar    1  LIG1        0.1588
      7 F          35.3774   47.1906   35.6726 F       1  LIG1       -0.2025
      8 F          33.2065   48.7521   36.2537 F       1  LIG1       -0.2024
      9 F          36.0443   52.4044   37.0657 F       1  LIG1       -0.2051
     10 C          38.4037   50.9069   36.4675 C.3     1  LIG1        0.0187
     11 C          39.0772   51.0742   35.0863 C.3     1  LIG1       -0.0118
     12 C          40.4571   51.7542   35.2044 C.3     1  LIG1        0.0673
     13 N          38.2199   51.9270   34.1963 N.4     1  LIG1        0.2213
     14 C          41.4855   50.9711   35.9957 C.2     1  LIG1        0.2216
     15 N          42.6685   51.6023   36.1683 N.am    1  LIG1       -0.2892
     16 C          43.0239   52.8948   35.5240 C.3     1  LIG1        0.0335
     17 C          44.2449   52.6922   34.6020 C.3     1  LIG1        0.0422
     18 C          43.6794   50.9720   37.0491 C.3     1  LIG1        0.0898
     19 N          46.1784   50.6651   36.7968 N.ar    1  LIG1       -0.1321
     20 C          45.0458   51.1734   36.4238 C.ar    1  LIG1        0.1547
     21 N          45.2817   51.9481   35.3317 N.ar    1  LIG1       -0.3046
     22 C          46.6139   51.8782   35.0455 C.ar    1  LIG1        0.2377
     23 N          47.1518   51.1034   35.9386 N.ar    1  LIG1       -0.1250
     24 C          47.3431   52.5561   33.8971 C.3     1  LIG1        0.4524
     25 F          47.1664   53.9355   33.9113 F       1  LIG1       -0.1632
     26 F          48.7121   52.3171   33.9474 F       1  LIG1       -0.1632
     27 F          46.8875   52.0888   32.6689 F       1  LIG1       -0.1632
     28 O          41.2354   49.8585   36.4401 O.2     1  LIG1       -0.2754
     29 C          43.6188   51.4756   38.5082 C.3     1  LIG1       -0.0019
     30 C          42.3132   51.1861   39.2352 C.ar    1  LIG1       -0.0452
     31 C          41.2266   52.0169   39.0658 C.ar    1  LIG1       -0.0585
     32 C          40.0417   51.7542   39.7143 C.ar    1  LIG1       -0.0615
     33 C          39.9395   50.6593   40.5412 C.ar    1  LIG1       -0.0617
     34 C          41.0232   49.8301   40.7195 C.ar    1  LIG1       -0.0615
     35 C          42.2064   50.0932   40.0674 C.ar    1  LIG1       -0.0585
     36 H          33.8325   51.1517   36.8814 H       1  LIG1        0.0676
     37 H          37.5995   48.4399   35.8691 H       1  LIG1        0.0651
     38 H          38.4110   51.9721   37.0197 H       1  LIG1        0.0369
     39 H          39.0741   50.1602   37.1228 H       1  LIG1        0.0369
     40 H          39.2059   49.9967   34.5741 H       1  LIG1        0.0858
     41 H          40.2722   52.8198   35.7245 H       1  LIG1        0.0414
     42 H          40.8659   51.8905   34.0840 H       1  LIG1        0.0414
     43 H          37.3951   51.5586   34.0822 H       1  LIG1        0.1997
     44 H          38.5847   52.0258   33.3672 H       1  LIG1        0.1997
     45 H          38.1006   52.7593   34.5486 H       1  LIG1        0.1997
     46 H          42.1808   53.4363   34.8694 H       1  LIG1        0.0482
     47 H          43.3460   53.6647   36.3858 H       1  LIG1        0.0482
     48 H          43.9126   52.0659   33.6335 H       1  LIG1        0.0508
     49 H          44.6612   53.7643   34.2627 H       1  LIG1        0.0508
     50 H          43.4790   49.7892   37.0710 H       1  LIG1        0.0585
     51 H          44.5201   50.9582   39.1099 H       1  LIG1        0.0335
     52 H          43.8150   52.6593   38.5191 H       1  LIG1        0.0335
     53 H          41.2988   52.8135   38.4654 H       1  LIG1        0.0620
     54 H          39.2559   52.3587   39.5842 H       1  LIG1        0.0618
     55 H          39.0790   50.4671   41.0129 H       1  LIG1        0.0618
     56 H          40.9509   49.0355   41.3225 H       1  LIG1        0.0618
     57 H          42.9920   49.4882   40.1978 H       1  LIG1        0.0620
@<TRIPOS>BOND
     1     1     2   ar
     2     1     8    1
     3     2     3   ar
     4     2    36    1
     5     3     4   ar
     6     3     9    1
     7     4     5   ar
     8     4    10    1
     9     5     6   ar
    10     5    37    1
    11     6     1   ar
    12     6     7    1
    13    10    38    1
    14    10    39    1
    15    11    10    1
    16    11    12    1
    17    11    13    1
    18    11    40    1
    19    12    14    1
    20    12    41    1
    21    12    42    1
    22    13    43    1
    23    13    44    1
    24    13    45    1
    25    14    15   am
    26    14    28    2
    27    15    16    1
    28    15    18    1
    29    16    17    1
    30    16    46    1
    31    16    47    1
    32    17    21    1
    33    17    48    1
    34    17    49    1
    35    18    29    1
    36    18    50    1
    37    19    20   ar
    38    20    18    1
    39    20    21   ar
    40    21    22   ar
    41    22    23   ar
    42    22    24    1
    43    23    19   ar
    44    24    25    1
    45    24    26    1
    46    24    27    1
    47    29    30    1
    48    29    51    1
    49    29    52    1
    50    30    31   ar
    51    31    32   ar
    52    31    53    1
    53    32    33   ar
    54    32    54    1
    55    33    34   ar
    56    33    55    1
    57    34    35   ar
    58    34    56    1
    59    35    30   ar
    60    35    57    1
