bindingdb_similar_1x70_processed:11
 OpenBabel04261912203D

 44 46  0  0  1  0  0  0  0  0999 V2000
   34.5841   49.2252   36.6452 C   0  0  0  0  0  0  0  0  0  0  0  0
   34.7315   50.5652   36.9195 C   0  0  0  0  0  0  0  0  0  0  0  0
   35.9823   51.1408   36.8843 C   0  0  0  0  0  0  0  0  0  0  0  0
   37.0889   50.3798   36.5755 C   0  0  0  0  0  0  0  0  0  0  0  0
   36.9370   49.0375   36.3060 C   0  0  0  0  0  0  0  0  0  0  0  0
   35.6871   48.4612   36.3389 C   0  0  0  0  0  0  0  0  0  0  0  0
   38.4628   51.0307   36.5351 C   0  0  0  0  0  0  0  0  0  0  0  0
   39.1124   51.1151   35.1357 C   0  0  1  0  0  0  0  0  0  0  0  0
   38.2510   51.9323   34.2132 N   0  3  0  0  0  0  0  0  0  0  0  0
   40.5035   51.7779   35.2161 C   0  0  0  0  0  0  0  0  0  0  0  0
   41.5291   50.9752   35.9954 C   0  0  0  0  0  0  0  0  0  0  0  0
   41.2575   49.8727   36.4524 O   0  0  0  0  0  0  0  0  0  0  0  0
   42.7327   51.5742   36.1405 N   0  0  0  0  0  0  0  0  0  0  0  0
   43.1090   52.8686   35.5151 C   0  0  0  0  0  0  0  0  0  0  0  0
   44.3102   52.6692   34.5633 C   0  0  0  0  0  0  0  0  0  0  0  0
   43.7592   50.9181   36.9783 C   0  0  0  0  0  0  0  0  0  0  0  0
   45.1182   51.0982   36.3331 C   0  0  0  0  0  0  0  0  0  0  0  0
   45.3498   51.8934   35.2560 N   0  0  0  0  0  0  0  0  0  0  0  0
   46.6771   51.8089   34.9493 C   0  0  0  0  0  0  0  0  0  0  0  0
   47.2145   51.0044   35.8165 N   0  0  0  0  0  0  0  0  0  0  0  0
   46.2467   50.5625   36.6787 N   0  0  0  0  0  0  0  0  0  0  0  0
   47.4050   52.5041   33.8110 C   0  0  0  0  0  0  0  0  0  0  0  0
   47.2800   53.8873   33.8836 F   0  0  0  0  0  0  0  0  0  0  0  0
   46.9077   52.1014   32.5762 F   0  0  0  0  0  0  0  0  0  0  0  0
   48.7650   52.2132   33.8229 F   0  0  0  0  0  0  0  0  0  0  0  0
   36.1699   52.8346   37.2318 Cl  0  0  0  0  0  0  0  0  0  0  0  0
   39.2278   50.0089   34.6854 H   0  0  0  0  0  0  0  0  0  0  0  0
   33.6764   48.8066   36.6688 H   0  0  0  0  0  0  0  0  0  0  0  0
   33.9310   51.1210   37.1441 H   0  0  0  0  0  0  0  0  0  0  0  0
   37.7367   48.4801   36.0832 H   0  0  0  0  0  0  0  0  0  0  0  0
   35.5804   47.4870   36.1398 H   0  0  0  0  0  0  0  0  0  0  0  0
   38.3892   52.1433   36.9802 H   0  0  0  0  0  0  0  0  0  0  0  0
   39.1769   50.3929   37.2573 H   0  0  0  0  0  0  0  0  0  0  0  0
   37.4167   51.5798   34.1280 H   0  0  0  0  0  0  0  0  0  0  0  0
   38.5987   51.9845   33.3741 H   0  0  0  0  0  0  0  0  0  0  0  0
   38.1472   52.7858   34.5119 H   0  0  0  0  0  0  0  0  0  0  0  0
   40.3435   52.8473   35.7366 H   0  0  0  0  0  0  0  0  0  0  0  0
   40.8995   51.9056   34.0902 H   0  0  0  0  0  0  0  0  0  0  0  0
   42.2610   53.4492   34.9008 H   0  0  0  0  0  0  0  0  0  0  0  0
   43.4707   53.5934   36.4005 H   0  0  0  0  0  0  0  0  0  0  0  0
   43.9509   52.0636   33.5917 H   0  0  0  0  0  0  0  0  0  0  0  0
   44.7368   53.7406   34.2326 H   0  0  0  0  0  0  0  0  0  0  0  0
   43.5274   49.7450   37.0778 H   0  0  0  0  0  0  0  0  0  0  0  0
   43.7646   51.4179   38.0693 H   0  0  0  0  0  0  0  0  0  0  0  0
  1  2  2  0  0  0  0
  1 28  1  0  0  0  0
  2  3  1  0  0  0  0
  2 29  1  0  0  0  0
  3  4  2  0  0  0  0
  3 26  1  0  0  0  0
  4  5  1  0  0  0  0
  4  7  1  0  0  0  0
  5  6  2  0  0  0  0
  5 30  1  0  0  0  0
  6  1  1  0  0  0  0
  6 31  1  0  0  0  0
  7 32  1  0  0  0  0
  7 33  1  0  0  0  0
  8  7  1  0  0  0  0
  8  9  1  0  0  0  0
  8 10  1  0  0  0  0
  8 27  1  6  0  0  0
  9 34  1  0  0  0  0
  9 35  1  0  0  0  0
  9 36  1  0  0  0  0
 10 11  1  0  0  0  0
 10 37  1  0  0  0  0
 10 38  1  0  0  0  0
 11 12  2  0  0  0  0
 11 13  1  0  0  0  0
 13 14  1  0  0  0  0
 13 16  1  0  0  0  0
 14 15  1  0  0  0  0
 14 39  1  0  0  0  0
 14 40  1  0  0  0  0
 15 18  1  0  0  0  0
 15 41  1  0  0  0  0
 15 42  1  0  0  0  0
 16 43  1  0  0  0  0
 16 44  1  0  0  0  0
 17 16  1  0  0  0  0
 17 18  1  0  0  0  0
 18 19  1  0  0  0  0
 19 20  2  0  0  0  0
 19 22  1  0  0  0  0
 20 21  1  0  0  0  0
 21 17  2  0  0  0  0
 22 23  1  0  0  0  0
 22 24  1  0  0  0  0
 22 25  1  0  0  0  0
M  CHG  1   9   1
M  END
>  <Mean(IC50 fixed2)>
145

>  <First(BindingDB Ligand Name)>
CHEMBL388431

>  <Concatenate(Target Name Assigned by Curator or DataSource)>
Dipeptidyl Peptidase IV (DPP-IV)

>  <First(Target Source Organism According to Curator or DataSource)>
Homo sapiens

>  <First(Curation/DataSource)>
ChEMBL

>  <First(Article DOI)>
10.1016/j.bmcl.2007.03.098

>  <Mean(PMID)>
17434732

>  <First(Authors)>
Kim, D; Kowalchick, JE; Edmondson, SD; Mastracchio, A; Xu, J; Eiermann, GJ; Leiting, B; Wu, JK; Pryor, KD; Patel, RA; He, H; Lyons, KA; Thornberry, NA; Weber, AE

>  <First(Institution)>
Merck Research Laboratories<span class=m1fontSize>Curated by</span> <a href=http://www.ebi.ac.uk/chembl/>ChEMBL</a>

>  <First(Link to Ligand in BindingDB)>
http://www.bindingdb.org/bind/chemsearch/marvin/MolStructure.jsp?monomerid=50210661

>  <First(Link to Ligand-Target Pair in BindingDB)>
http://www.bindingdb.org/jsp/dbsearch/PrimarySearch_ki.jsp?energyterm=kJ/mole&tag=r21&monomerid=50210661&enzyme=Dipeptidyl+Peptidase+IV+%28DPP-IV%29&column=ki&startPg=0&Increment=50&submit=Search

>  <Mean(PubChem CID)>
44431199

>  <Mean(PubChem SID)>
104087148

>  <First(ZINC ID of Ligand)>
ZINC28820799

>  <Concatenate*(UniProt (SwissProt) Entry Name of Target Chain)>
DPP4_HUMAN

>  <Mean(Number of Protein Chains in Target (>1 implies a multichain complex))>
1

>  <Median(pIC50)>
6.83863199776502

>  <Journal>
BiorgMedChemLett2007

>  <Activity Classes>
6.83863199776502

>  <Conformer_cresset>
1

>  <Similarity_cresset>
0.818

>  <Favorite_cresset>
false

>  <Activity (Median(pIC50))_cresset>
6.84

>  <LE (Median(pIC50))_cresset>
0.368

>  <LipE (Median(pIC50))_cresset>
4.6

>  <Tags_cresset>
test

>  <Confs_cresset>
1

>  <Conf#_cresset>
1

>  <Alns_cresset>
1

>  <MW_cresset>
388.8

>  <#Atoms_cresset>
26

>  <SlogP_cresset>
2.3

>  <TPSA_cresset>
78.7

>  <Flexibility_cresset>
4.9

>  <#RB_cresset>
6

>  <Rof5_cresset>
0

>  <Filename_cresset>
bindingdb_similar_1x70_processed.sdf

>  <Notes_cresset>
33

>  <Selected Alignment_cresset>
true

>  <Alignment Cluster Centre_cresset>
false

>  <_cresset_fieldpoints>
-5      36.504478      49.131550      39.407913     -3.4513
-5      40.458252      48.303452      36.804367     -7.8994
-5      47.905205      49.767281      37.037071    -12.3987
-6      31.633085      50.107056      37.017395      3.6090
-6      33.107296      46.581982      36.041363      3.3878
-6      42.102337      53.467278      32.702805     11.2665
-7      36.562096      49.374657      39.753510     -1.8988
-7      37.779320      51.689404      39.669426     -1.9492
-7      41.015553      52.537865      38.366875     -2.6418
-7      33.187630      46.165756      36.144798     -0.9689
-7      31.382805      50.192451      37.268574     -0.9773
-7      40.104679      47.945290      36.070389     -2.4444
-7      37.142216      49.352470      33.061543     -2.2378
-7      43.070786      49.644531      33.935535     -2.7065
-7      41.957558      53.363369      32.290554     -1.6881
-7      40.010002      54.366684      33.483154     -1.8449
-7      38.468735      54.557030      36.257660     -2.2320
-7      40.220055      50.198124      32.204994     -1.5184
-7      35.399323      50.330612      33.438629     -2.2622
-7      45.912891      54.388306      36.910847     -2.3050
-7      44.583015      54.214363      31.683258     -1.5661
-7      48.074364      51.853210      37.904472     -1.4895
-7      47.317627      48.638214      35.368805     -1.4934
-7      46.687855      48.664253      34.474148     -1.4555
-7      49.112656      54.143944      31.086510     -1.1104
-7      35.482330      53.111931      34.292805     -2.1776
-8      35.839218      49.804459      36.611656      7.1968
-8      36.939594      51.595467      36.857399      5.8462
-8      39.564098      51.394161      35.975090      4.9677
-8      43.539909      53.265556      34.718559      3.7899
-8      47.426926      52.549629      33.741051      5.6556
-8      44.270325      50.746300      37.296997      2.7935

$$$$
