bindingdb_similar_1x70_processed:32
 OpenBabel04261912203D

 44 46  0  0  1  0  0  0  0  0999 V2000
   34.4473   49.2626   36.3118 C   0  0  0  0  0  0  0  0  0  0  0  0
   34.6264   50.5962   36.6028 C   0  0  0  0  0  0  0  0  0  0  0  0
   35.8960   51.1283   36.6452 C   0  0  0  0  0  0  0  0  0  0  0  0
   36.9918   50.3281   36.4030 C   0  0  0  0  0  0  0  0  0  0  0  0
   36.8106   48.9965   36.0999 C   0  0  0  0  0  0  0  0  0  0  0  0
   35.5421   48.4627   36.0465 C   0  0  0  0  0  0  0  0  0  0  0  0
   38.3918   50.9209   36.4573 C   0  0  0  0  0  0  0  0  0  0  0  0
   39.0711   51.0900   35.0803 C   0  0  1  0  0  0  0  0  0  0  0  0
   38.2132   51.9487   34.1923 N   0  3  0  0  0  0  0  0  0  0  0  0
   40.4527   51.7636   35.2205 C   0  0  0  0  0  0  0  0  0  0  0  0
   41.4791   50.9679   36.0066 C   0  0  0  0  0  0  0  0  0  0  0  0
   41.2235   49.8535   36.4434 O   0  0  0  0  0  0  0  0  0  0  0  0
   42.6654   51.5923   36.1831 N   0  0  0  0  0  0  0  0  0  0  0  0
   43.0306   52.8931   35.5650 C   0  0  0  0  0  0  0  0  0  0  0  0
   44.2406   52.7021   34.6231 C   0  0  0  0  0  0  0  0  0  0  0  0
   43.6887   50.9624   37.0450 C   0  0  0  0  0  0  0  0  0  0  0  0
   45.0531   51.1577   36.4145 C   0  0  0  0  0  0  0  0  0  0  0  0
   45.2842   51.9456   35.3316 N   0  0  0  0  0  0  0  0  0  0  0  0
   46.6154   51.8769   35.0385 C   0  0  0  0  0  0  0  0  0  0  0  0
   47.1563   51.0917   35.9207 N   0  0  0  0  0  0  0  0  0  0  0  0
   46.1865   50.6446   36.7784 N   0  0  0  0  0  0  0  0  0  0  0  0
   47.3430   52.5649   33.8958 C   0  0  0  0  0  0  0  0  0  0  0  0
   46.8817   52.1129   32.6639 F   0  0  0  0  0  0  0  0  0  0  0  0
   48.7111   52.3184   33.9394 F   0  0  0  0  0  0  0  0  0  0  0  0
   47.1729   53.9448   33.9271 F   0  0  0  0  0  0  0  0  0  0  0  0
   36.1166   52.8153   37.0045 Cl  0  0  0  0  0  0  0  0  0  0  0  0
   33.2095   48.7475   36.2854 F   0  0  0  0  0  0  0  0  0  0  0  0
   35.3752   47.1700   35.7291 F   0  0  0  0  0  0  0  0  0  0  0  0
   33.8344   51.1791   36.7841 H   0  0  0  0  0  0  0  0  0  0  0  0
   37.6041   48.4165   35.9145 H   0  0  0  0  0  0  0  0  0  0  0  0
   38.3484   51.9949   36.9912 H   0  0  0  0  0  0  0  0  0  0  0  0
   39.0618   50.1989   37.1417 H   0  0  0  0  0  0  0  0  0  0  0  0
   39.2017   50.0127   34.5691 H   0  0  0  0  0  0  0  0  0  0  0  0
   37.3875   51.5869   34.0684 H   0  0  0  0  0  0  0  0  0  0  0  0
   38.5742   52.0608   33.3649 H   0  0  0  0  0  0  0  0  0  0  0  0
   38.0896   52.7773   34.5473 H   0  0  0  0  0  0  0  0  0  0  0  0
   40.2636   52.8189   35.7603 H   0  0  0  0  0  0  0  0  0  0  0  0
   40.8700   51.9212   34.1061 H   0  0  0  0  0  0  0  0  0  0  0  0
   42.1819   53.4685   34.9465 H   0  0  0  0  0  0  0  0  0  0  0  0
   43.3787   53.6196   36.4545 H   0  0  0  0  0  0  0  0  0  0  0  0
   43.8969   52.0831   33.6540 H   0  0  0  0  0  0  0  0  0  0  0  0
   44.6537   53.7771   34.2871 H   0  0  0  0  0  0  0  0  0  0  0  0
   43.4750   49.7875   37.1612 H   0  0  0  0  0  0  0  0  0  0  0  0
   43.6722   51.4803   38.1274 H   0  0  0  0  0  0  0  0  0  0  0  0
  1  2  2  0  0  0  0
  1 27  1  0  0  0  0
  2  3  1  0  0  0  0
  2 29  1  0  0  0  0
  3  4  2  0  0  0  0
  3 26  1  0  0  0  0
  4  5  1  0  0  0  0
  4  7  1  0  0  0  0
  5  6  2  0  0  0  0
  5 30  1  0  0  0  0
  6  1  1  0  0  0  0
  6 28  1  0  0  0  0
  7 31  1  0  0  0  0
  7 32  1  0  0  0  0
  8  7  1  0  0  0  0
  8  9  1  0  0  0  0
  8 10  1  0  0  0  0
  8 33  1  6  0  0  0
  9 34  1  0  0  0  0
  9 35  1  0  0  0  0
  9 36  1  0  0  0  0
 10 11  1  0  0  0  0
 10 37  1  0  0  0  0
 10 38  1  0  0  0  0
 11 12  2  0  0  0  0
 11 13  1  0  0  0  0
 13 14  1  0  0  0  0
 13 16  1  0  0  0  0
 14 15  1  0  0  0  0
 14 39  1  0  0  0  0
 14 40  1  0  0  0  0
 15 18  1  0  0  0  0
 15 41  1  0  0  0  0
 15 42  1  0  0  0  0
 16 43  1  0  0  0  0
 16 44  1  0  0  0  0
 17 16  1  0  0  0  0
 17 18  1  0  0  0  0
 18 19  1  0  0  0  0
 19 20  2  0  0  0  0
 19 22  1  0  0  0  0
 20 21  1  0  0  0  0
 21 17  2  0  0  0  0
 22 23  1  0  0  0  0
 22 24  1  0  0  0  0
 22 25  1  0  0  0  0
M  CHG  1   9   1
M  END
>  <Mean(IC50 fixed2)>
84

>  <First(BindingDB Ligand Name)>
CHEMBL233058

>  <Concatenate(Target Name Assigned by Curator or DataSource)>
Dipeptidyl Peptidase IV (DPP-IV)

>  <First(Target Source Organism According to Curator or DataSource)>
Homo sapiens

>  <First(Curation/DataSource)>
ChEMBL

>  <First(Article DOI)>
10.1016/j.bmcl.2007.03.098

>  <Mean(PMID)>
17434732

>  <First(Authors)>
Kim, D; Kowalchick, JE; Edmondson, SD; Mastracchio, A; Xu, J; Eiermann, GJ; Leiting, B; Wu, JK; Pryor, KD; Patel, RA; He, H; Lyons, KA; Thornberry, NA; Weber, AE

>  <First(Institution)>
Merck Research Laboratories<span class=m1fontSize>Curated by</span> <a href=http://www.ebi.ac.uk/chembl/>ChEMBL</a>

>  <First(Link to Ligand in BindingDB)>
http://www.bindingdb.org/bind/chemsearch/marvin/MolStructure.jsp?monomerid=50210643

>  <First(Link to Ligand-Target Pair in BindingDB)>
http://www.bindingdb.org/jsp/dbsearch/PrimarySearch_ki.jsp?energyterm=kJ/mole&tag=r21&monomerid=50210643&enzyme=Dipeptidyl+Peptidase+IV+%28DPP-IV%29&column=ki&startPg=0&Increment=50&submit=Search

>  <Mean(PubChem CID)>
44431206

>  <Mean(PubChem SID)>
104087130

>  <First(ZINC ID of Ligand)>
ZINC28820823

>  <Concatenate*(UniProt (SwissProt) Entry Name of Target Chain)>
DPP4_HUMAN

>  <Mean(Number of Protein Chains in Target (>1 implies a multichain complex))>
1

>  <Median(pIC50)>
7.07572071393812

>  <Journal>
BiorgMedChemLett2007

>  <Activity Classes>
7.07572071393812

>  <Conformer_cresset>
1

>  <Similarity_cresset>
0.868

>  <Favorite_cresset>
false

>  <Activity (Median(pIC50))_cresset>
7.08

>  <LE (Median(pIC50))_cresset>
0.354

>  <LipE (Median(pIC50))_cresset>
4

>  <Tags_cresset>
training

>  <Confs_cresset>
2

>  <Conf#_cresset>
1

>  <Alns_cresset>
2

>  <MW_cresset>
424.8

>  <#Atoms_cresset>
28

>  <SlogP_cresset>
3.1

>  <TPSA_cresset>
78.7

>  <Flexibility_cresset>
4.9

>  <#RB_cresset>
6

>  <Rof5_cresset>
0

>  <Filename_cresset>
bindingdb_similar_1x70_processed.sdf

>  <Notes_cresset>
41

>  <Selected Alignment_cresset>
true

>  <Alignment Cluster Centre_cresset>
true

>  <_cresset_fieldpoints>
-5      32.789547      45.940750      35.779449     -2.7516
-5      40.631577      48.181503      36.783070     -7.0984
-5      47.854710      49.874317      37.154728    -12.2108
-6      42.031292      53.491238      32.751453     11.7815
-7      37.448906      51.539822      39.567928     -1.9459
-7      35.422520      53.087563      34.048809     -2.1838
-7      40.877491      52.474159      38.391705     -2.6094
-7      40.018623      47.936787      35.950779     -2.5422
-7      41.919868      53.409443      32.330654     -1.6934
-7      39.951290      54.404682      33.567711     -1.8746
-7      38.481693      54.497429      36.358372     -2.2404
-7      40.191933      50.358116      32.101551     -1.5147
-7      35.502148      50.236969      33.161629     -2.5175
-7      44.518700      54.158630      31.705656     -1.5814
-7      45.807926      54.469280      36.957062     -2.3039
-7      47.980427      51.971542      38.010120     -1.4881
-7      43.090492      49.639996      34.003048     -2.6990
-7      47.298706      48.720154      35.498775     -1.4948
-7      49.049690      54.185890      31.158028     -1.1104
-7      37.027267      49.420406      32.909119     -2.4320
-7      35.980648      49.059238      39.457047     -2.0866
-8      35.714798      49.787014      36.347576      7.2501
-8      36.867584      51.545113      36.680428      5.8339
-8      39.498844      51.331917      35.939087      4.9496
-8      36.063557      51.382172      36.687706      5.7242
-8      43.463223      53.293995      34.772720      3.7886
-8      44.198864      50.803398      37.371040      2.7954
-8      47.363705      52.608402      33.828030      5.6556
-8      43.719276      52.047787      36.189434      2.6754

$$$$
