bindingdb_similar_1x70_processed:37
 OpenBabel04261912203D

 50 53  0  0  1  0  0  0  0  0999 V2000
   34.3331   49.2415   36.3875 C   0  0  0  0  0  0  0  0  0  0  0  0
   34.5019   50.5538   36.7602 C   0  0  0  0  0  0  0  0  0  0  0  0
   35.7674   51.0946   36.8379 C   0  0  0  0  0  0  0  0  0  0  0  0
   36.8728   50.3201   36.5422 C   0  0  0  0  0  0  0  0  0  0  0  0
   36.6975   49.0051   36.1728 C   0  0  0  0  0  0  0  0  0  0  0  0
   35.4322   48.4652   36.0924 C   0  0  0  0  0  0  0  0  0  0  0  0
   38.2817   50.8957   36.6023 C   0  0  0  0  0  0  0  0  0  0  0  0
   38.9630   51.0889   35.2273 C   0  0  1  0  0  0  0  0  0  0  0  0
   38.1107   51.9526   34.3381 N   0  3  0  0  0  0  0  0  0  0  0  0
   40.3408   51.7689   35.3739 C   0  0  0  0  0  0  0  0  0  0  0  0
   41.3656   50.9764   36.1631 C   0  0  0  0  0  0  0  0  0  0  0  0
   41.1179   49.8547   36.5864 O   0  0  0  0  0  0  0  0  0  0  0  0
   42.5430   51.6116   36.3579 N   0  0  0  0  0  0  0  0  0  0  0  0
   42.9092   52.9138   35.7425 C   0  0  0  0  0  0  0  0  0  0  0  0
   44.1302   52.7233   34.8135 C   0  0  0  0  0  0  0  0  0  0  0  0
   43.5560   50.9878   37.2344 C   0  0  0  0  0  0  0  0  0  0  0  0
   44.9264   51.1890   36.6222 C   0  0  0  0  0  0  0  0  0  0  0  0
   45.1636   51.9521   35.5229 N   0  0  0  0  0  0  0  0  0  0  0  0
   46.4989   51.8596   35.2373 C   0  0  0  0  0  0  0  0  0  0  0  0
   47.0370   51.1062   36.1575 N   0  0  0  0  0  0  0  0  0  0  0  0
   46.0567   50.6889   37.0156 N   0  0  0  0  0  0  0  0  0  0  0  0
   35.2704   47.1872   35.7248 F   0  0  0  0  0  0  0  0  0  0  0  0
   47.1397   52.4500   34.0845 C   0  0  0  0  0  0  0  0  0  0  0  0
   47.8086   53.6516   34.1408 C   0  0  0  0  0  0  0  0  0  0  0  0
   48.4114   54.1332   33.0044 C   0  0  0  0  0  0  0  0  0  0  0  0
   48.3956   53.4968   31.8152 N   0  0  0  0  0  0  0  0  0  0  0  0
   47.7292   52.3258   31.7902 C   0  0  0  0  0  0  0  0  0  0  0  0
   47.1004   51.7842   32.8818 C   0  0  0  0  0  0  0  0  0  0  0  0
   35.9098   52.3783   37.1999 F   0  0  0  0  0  0  0  0  0  0  0  0
   33.4138   48.8510   36.3298 H   0  0  0  0  0  0  0  0  0  0  0  0
   33.7044   51.1181   36.9742 H   0  0  0  0  0  0  0  0  0  0  0  0
   37.4934   48.4396   35.9566 H   0  0  0  0  0  0  0  0  0  0  0  0
   38.2771   51.9526   37.1701 H   0  0  0  0  0  0  0  0  0  0  0  0
   38.9461   50.1443   37.2610 H   0  0  0  0  0  0  0  0  0  0  0  0
   39.1097   50.0160   34.7090 H   0  0  0  0  0  0  0  0  0  0  0  0
   37.2918   51.5826   34.1926 H   0  0  0  0  0  0  0  0  0  0  0  0
   38.4863   52.0853   33.5191 H   0  0  0  0  0  0  0  0  0  0  0  0
   37.9719   52.7734   34.7074 H   0  0  0  0  0  0  0  0  0  0  0  0
   40.1502   52.8257   35.9091 H   0  0  0  0  0  0  0  0  0  0  0  0
   40.7659   51.9253   34.2623 H   0  0  0  0  0  0  0  0  0  0  0  0
   42.0656   53.4818   35.1095 H   0  0  0  0  0  0  0  0  0  0  0  0
   43.2368   53.6438   36.6360 H   0  0  0  0  0  0  0  0  0  0  0  0
   43.7953   52.1160   33.8353 H   0  0  0  0  0  0  0  0  0  0  0  0
   44.5596   53.7972   34.4923 H   0  0  0  0  0  0  0  0  0  0  0  0
   43.3494   49.8087   37.3249 H   0  0  0  0  0  0  0  0  0  0  0  0
   43.5159   51.4874   38.3241 H   0  0  0  0  0  0  0  0  0  0  0  0
   47.8570   54.1667   34.9965 H   0  0  0  0  0  0  0  0  0  0  0  0
   48.8931   55.0070   33.0625 H   0  0  0  0  0  0  0  0  0  0  0  0
   47.6922   51.8219   30.9280 H   0  0  0  0  0  0  0  0  0  0  0  0
   46.6215   50.9099   32.8067 H   0  0  0  0  0  0  0  0  0  0  0  0
  1  2  2  0  0  0  0
  1 30  1  0  0  0  0
  2  3  1  0  0  0  0
  2 31  1  0  0  0  0
  3  4  2  0  0  0  0
  3 29  1  0  0  0  0
  4  5  1  0  0  0  0
  4  7  1  0  0  0  0
  5  6  2  0  0  0  0
  5 32  1  0  0  0  0
  6  1  1  0  0  0  0
  6 22  1  0  0  0  0
  7 33  1  0  0  0  0
  7 34  1  0  0  0  0
  8  7  1  0  0  0  0
  8  9  1  0  0  0  0
  8 10  1  0  0  0  0
  8 35  1  6  0  0  0
  9 36  1  0  0  0  0
  9 37  1  0  0  0  0
  9 38  1  0  0  0  0
 10 11  1  0  0  0  0
 10 39  1  0  0  0  0
 10 40  1  0  0  0  0
 11 12  2  0  0  0  0
 11 13  1  0  0  0  0
 13 14  1  0  0  0  0
 13 16  1  0  0  0  0
 14 15  1  0  0  0  0
 14 41  1  0  0  0  0
 14 42  1  0  0  0  0
 15 18  1  0  0  0  0
 15 43  1  0  0  0  0
 15 44  1  0  0  0  0
 16 45  1  0  0  0  0
 16 46  1  0  0  0  0
 17 16  1  0  0  0  0
 17 18  1  0  0  0  0
 18 19  1  0  0  0  0
 19 20  2  0  0  0  0
 19 23  1  0  0  0  0
 20 21  1  0  0  0  0
 21 17  2  0  0  0  0
 23 24  2  0  0  0  0
 24 25  1  0  0  0  0
 24 47  1  0  0  0  0
 25 26  2  0  0  0  0
 25 48  1  0  0  0  0
 26 27  1  0  0  0  0
 27 28  2  0  0  0  0
 27 49  1  0  0  0  0
 28 23  1  0  0  0  0
 28 50  1  0  0  0  0
M  CHG  1   9   1
M  END
>  <Mean(IC50 fixed2)>
65

>  <First(BindingDB Ligand Name)>
CHEMBL233474

>  <Concatenate(Target Name Assigned by Curator or DataSource)>
Dipeptidyl Peptidase IV (DPP-IV)

>  <First(Target Source Organism According to Curator or DataSource)>
Homo sapiens

>  <First(Curation/DataSource)>
ChEMBL

>  <First(Article DOI)>
10.1016/j.bmcl.2007.03.098

>  <Mean(PMID)>
17434732

>  <First(Authors)>
Kim, D; Kowalchick, JE; Edmondson, SD; Mastracchio, A; Xu, J; Eiermann, GJ; Leiting, B; Wu, JK; Pryor, KD; Patel, RA; He, H; Lyons, KA; Thornberry, NA; Weber, AE

>  <First(Institution)>
Merck Research Laboratories<span class=m1fontSize>Curated by</span> <a href=http://www.ebi.ac.uk/chembl/>ChEMBL</a>

>  <First(Link to Ligand in BindingDB)>
http://www.bindingdb.org/bind/chemsearch/marvin/MolStructure.jsp?monomerid=50210648

>  <First(Link to Ligand-Target Pair in BindingDB)>
http://www.bindingdb.org/jsp/dbsearch/PrimarySearch_ki.jsp?energyterm=kJ/mole&tag=r21&monomerid=50210648&enzyme=Dipeptidyl+Peptidase+IV+%28DPP-IV%29&column=ki&startPg=0&Increment=50&submit=Search

>  <Mean(PubChem CID)>
44431214

>  <Mean(PubChem SID)>
104087135

>  <First(ZINC ID of Ligand)>
ZINC28820845

>  <Concatenate*(UniProt (SwissProt) Entry Name of Target Chain)>
DPP4_HUMAN

>  <Mean(Number of Protein Chains in Target (>1 implies a multichain complex))>
1

>  <Median(pIC50)>
7.18708664335714

>  <Journal>
BiorgMedChemLett2007

>  <Activity Classes>
7.18708664335714

>  <Conformer_cresset>
1

>  <Similarity_cresset>
0.787

>  <Favorite_cresset>
false

>  <Activity (Median(pIC50))_cresset>
7.19

>  <LE (Median(pIC50))_cresset>
0.347

>  <LipE (Median(pIC50))_cresset>
4.7

>  <Tags_cresset>
training

>  <Confs_cresset>
3

>  <Conf#_cresset>
1

>  <Alns_cresset>
3

>  <MW_cresset>
399.4

>  <#Atoms_cresset>
29

>  <SlogP_cresset>
2.5

>  <TPSA_cresset>
91.6

>  <Flexibility_cresset>
4.9

>  <#RB_cresset>
6

>  <Rof5_cresset>
0

>  <Filename_cresset>
bindingdb_similar_1x70_processed.sdf

>  <Notes_cresset>
44

>  <Selected Alignment_cresset>
true

>  <Alignment Cluster Centre_cresset>
true

>  <_cresset_fieldpoints>
-5      36.376316      48.617405      39.295444     -1.3758
-5      40.444859      48.197227      36.812038     -7.2495
-5      47.747688      49.929035      37.405895    -11.9698
-5      49.586456      54.023663      30.362810     -5.3667
-6      31.478298      50.386791      36.685589      4.5694
-6      41.884026      53.455235      32.911762     11.3072
-7      31.127289      50.275051      36.734119     -1.0154
-7      37.050026      49.416042      32.986713     -2.3858
-7      35.328884      50.390598      33.292824     -2.4124
-7      36.037167      48.998154      39.559483     -2.0490
-7      40.737808      52.488987      38.547142     -2.6338
-7      39.838764      54.421875      33.737946     -1.8761
-7      44.386436      49.613400      33.754650     -2.4596
-7      40.063114      50.381332      32.239235     -1.5190
-7      41.825962      53.409721      32.488049     -1.6950
-7      48.131241      49.814335      37.710541     -1.2921
-7      43.050777      49.659904      34.187000     -2.7647
-7      41.166130      48.435360      34.673988     -1.9246
-7      39.913963      47.928230      36.077576     -2.5437
-7      45.789738      54.658455      36.829849     -2.4618
-7      50.322342      51.243671      34.074642     -1.5977
-7      44.967415      54.358528      32.015892     -2.2025
-7      38.336395      54.463848      36.556625     -2.0550
-8      35.605480      49.781975      36.460728      7.2396
-8      39.391869      51.317684      36.087799      4.9407
-8      43.350784      53.312191      34.955193      3.7826
-8      36.887402      51.156845      36.771244      5.6119
-8      47.541374      52.801609      33.336632      5.5644
-8      44.057907      50.828751      37.570869      2.7906
-8      43.599106      52.079487      36.379829      2.6743

$$$$
