bindingdb_similar_1x70_processed:48
 OpenBabel04261912203D

 50 52  0  0  1  0  0  0  0  0999 V2000
   34.4401   49.2603   36.3152 C   0  0  0  0  0  0  0  0  0  0  0  0
   34.6168   50.5795   36.6657 C   0  0  0  0  0  0  0  0  0  0  0  0
   35.8842   51.1170   36.7247 C   0  0  0  0  0  0  0  0  0  0  0  0
   36.9823   50.3319   36.4330 C   0  0  0  0  0  0  0  0  0  0  0  0
   36.8020   49.0105   36.0869 C   0  0  0  0  0  0  0  0  0  0  0  0
   35.5368   48.4729   36.0245 C   0  0  0  0  0  0  0  0  0  0  0  0
   35.3771   47.1880   35.6782 F   0  0  0  0  0  0  0  0  0  0  0  0
   33.2033   48.7471   36.2564 F   0  0  0  0  0  0  0  0  0  0  0  0
   36.0349   52.4068   37.0617 F   0  0  0  0  0  0  0  0  0  0  0  0
   38.3919   50.9043   36.4723 C   0  0  0  0  0  0  0  0  0  0  0  0
   39.0596   51.0679   35.0878 C   0  0  2  0  0  0  0  0  0  0  0  0
   40.4415   51.7377   35.2278 C   0  0  0  0  0  0  0  0  0  0  0  0
   38.2099   51.9253   34.1876 N   0  3  0  0  0  0  0  0  0  0  0  0
   41.4680   50.9519   36.0223 C   0  0  0  0  0  0  0  0  0  0  0  0
   42.6475   51.5882   36.1970 N   0  0  0  0  0  0  0  0  0  0  0  0
   43.0163   52.8785   35.5637 C   0  0  0  0  0  0  0  0  0  0  0  0
   44.1809   52.6928   34.5576 C   0  0  0  0  0  0  0  0  0  0  0  0
   43.6869   50.9792   37.0440 C   0  0  0  0  0  0  0  0  0  0  0  0
   46.1667   50.6906   36.7673 N   0  0  0  0  0  0  0  0  0  0  0  0
   45.0361   51.1945   36.3887 C   0  0  0  0  0  0  0  0  0  0  0  0
   45.2588   51.9742   35.2889 N   0  0  0  0  0  0  0  0  0  0  0  0
   46.6047   51.9011   35.0211 C   0  0  0  0  0  0  0  0  0  0  0  0
   47.1376   51.1282   35.9179 N   0  0  0  0  0  0  0  0  0  0  0  0
   47.3910   52.5608   33.8994 C   0  0  0  0  0  0  0  0  0  0  0  0
   46.9509   52.1331   32.6541 F   0  0  0  0  0  0  0  0  0  0  0  0
   48.7432   52.2435   33.9781 F   0  0  0  0  0  0  0  0  0  0  0  0
   47.3126   53.9470   33.9358 F   0  0  0  0  0  0  0  0  0  0  0  0
   41.2229   49.8349   36.4589 O   0  0  0  0  0  0  0  0  0  0  0  0
   44.4972   54.0925   33.9934 C   0  0  0  0  0  0  0  0  0  0  0  0
   43.6751   51.8315   33.3829 C   0  0  0  0  0  0  0  0  0  0  0  0
   33.8233   51.1506   36.8757 H   0  0  0  0  0  0  0  0  0  0  0  0
   37.5956   48.4401   35.8752 H   0  0  0  0  0  0  0  0  0  0  0  0
   38.3932   51.9711   37.0226 H   0  0  0  0  0  0  0  0  0  0  0  0
   39.0617   50.1635   37.1367 H   0  0  0  0  0  0  0  0  0  0  0  0
   39.1898   49.9865   34.5844 H   0  0  0  0  0  0  0  0  0  0  0  0
   40.2439   52.7932   35.7628 H   0  0  0  0  0  0  0  0  0  0  0  0
   40.8590   51.8966   34.1145 H   0  0  0  0  0  0  0  0  0  0  0  0
   37.3847   51.5639   34.0646 H   0  0  0  0  0  0  0  0  0  0  0  0
   38.5793   52.0235   33.3619 H   0  0  0  0  0  0  0  0  0  0  0  0
   38.0895   52.7577   34.5350 H   0  0  0  0  0  0  0  0  0  0  0  0
   42.1279   53.4742   35.0279 H   0  0  0  0  0  0  0  0  0  0  0  0
   43.4274   53.5834   36.4437 H   0  0  0  0  0  0  0  0  0  0  0  0
   43.4891   49.8020   37.1673 H   0  0  0  0  0  0  0  0  0  0  0  0
   43.6778   51.5086   38.1210 H   0  0  0  0  0  0  0  0  0  0  0  0
   45.1844   53.9886   33.0168 H   0  0  0  0  0  0  0  0  0  0  0  0
   43.4971   54.6605   33.6508 H   0  0  0  0  0  0  0  0  0  0  0  0
   45.0466   54.7462   34.8363 H   0  0  0  0  0  0  0  0  0  0  0  0
   42.8126   52.4216   32.7943 H   0  0  0  0  0  0  0  0  0  0  0  0
   44.5688   51.5972   32.6195 H   0  0  0  0  0  0  0  0  0  0  0  0
   43.2375   50.7968   33.8059 H   0  0  0  0  0  0  0  0  0  0  0  0
  1  2  2  0  0  0  0
  1  8  1  0  0  0  0
  2  3  1  0  0  0  0
  2 31  1  0  0  0  0
  3  4  2  0  0  0  0
  3  9  1  0  0  0  0
  4  5  1  0  0  0  0
  4 10  1  0  0  0  0
  5  6  2  0  0  0  0
  5 32  1  0  0  0  0
  6  1  1  0  0  0  0
  6  7  1  0  0  0  0
 10 33  1  0  0  0  0
 10 34  1  0  0  0  0
 11 10  1  0  0  0  0
 11 12  1  0  0  0  0
 11 13  1  0  0  0  0
 11 35  1  6  0  0  0
 12 14  1  0  0  0  0
 12 36  1  0  0  0  0
 12 37  1  0  0  0  0
 13 38  1  0  0  0  0
 13 39  1  0  0  0  0
 13 40  1  0  0  0  0
 14 15  1  0  0  0  0
 14 28  2  0  0  0  0
 15 16  1  0  0  0  0
 15 18  1  0  0  0  0
 16 17  1  0  0  0  0
 16 41  1  0  0  0  0
 16 42  1  0  0  0  0
 17 21  1  0  0  0  0
 17 29  1  0  0  0  0
 17 30  1  0  0  0  0
 18 43  1  0  0  0  0
 18 44  1  0  0  0  0
 19 20  2  0  0  0  0
 20 18  1  0  0  0  0
 20 21  1  0  0  0  0
 21 22  1  0  0  0  0
 22 23  2  0  0  0  0
 22 24  1  0  0  0  0
 23 19  1  0  0  0  0
 24 25  1  0  0  0  0
 24 26  1  0  0  0  0
 24 27  1  0  0  0  0
 29 45  1  0  0  0  0
 29 46  1  0  0  0  0
 29 47  1  0  0  0  0
 30 48  1  0  0  0  0
 30 49  1  0  0  0  0
 30 50  1  0  0  0  0
M  CHG  1  13   1
M  END
>  <Mean(IC50 fixed2)>
92

>  <First(BindingDB Ligand Name)>
CHEMBL536765

>  <Concatenate(Target Name Assigned by Curator or DataSource)>
Dipeptidyl Peptidase IV (DPP-IV)

>  <First(Target Source Organism According to Curator or DataSource)>
Homo sapiens

>  <First(Curation/DataSource)>
ChEMBL

>  <First(Article DOI)>
10.1021/jm070330v

>  <Mean(PMID)>
18201067

>  <First(Authors)>
Kim, D; Kowalchick, JE; Brockunier, LL; Parmee, ER; Eiermann, GJ; Fisher, MH; He, H; Leiting, B; Lyons, K; Scapin, G; Patel, SB; Petrov, A; Pryor, KD; Roy, RS; Wu, JK; Zhang, X; Wyvratt, MJ; Zhang, BB; Zhu, L; Thornberry, NA; Weber, AE

>  <First(Institution)>
Merck Research Laboratories<span class=m1fontSize>Curated by</span> <a href=http://www.ebi.ac.uk/chembl/>ChEMBL</a>

>  <First(Link to Ligand in BindingDB)>
http://www.bindingdb.org/bind/chemsearch/marvin/MolStructure.jsp?monomerid=50232505

>  <First(Link to Ligand-Target Pair in BindingDB)>
http://www.bindingdb.org/jsp/dbsearch/PrimarySearch_ki.jsp?energyterm=kJ/mole&tag=r21&monomerid=50232505&enzyme=Dipeptidyl+Peptidase+IV+%28DPP-IV%29&column=ki&startPg=0&Increment=50&submit=Search

>  <Mean(PubChem CID)>
44445031

>  <Mean(PubChem SID)>
104055517

>  <First(ZINC ID of Ligand)>
ZINC28967377

>  <Concatenate*(UniProt (SwissProt) Entry Name of Target Chain)>
DPP4_HUMAN

>  <Mean(Number of Protein Chains in Target (>1 implies a multichain complex))>
1

>  <Median(pIC50)>
7.03621217265444

>  <Activity Classes>
7.03621217265444

>  <Conformer_cresset>
1

>  <Similarity_cresset>
0.816

>  <Favorite_cresset>
false

>  <Activity (Median(pIC50))_cresset>
7.04

>  <LE (Median(pIC50))_cresset>
0.329

>  <LipE (Median(pIC50))_cresset>
3.5

>  <Tags_cresset>
training

>  <Confs_cresset>
2

>  <Conf#_cresset>
1

>  <Alns_cresset>
2

>  <MW_cresset>
436.4

>  <#Atoms_cresset>
30

>  <SlogP_cresset>
3.6

>  <TPSA_cresset>
78.7

>  <Flexibility_cresset>
4.9

>  <#RB_cresset>
6

>  <Rof5_cresset>
0

>  <Filename_cresset>
bindingdb_similar_1x70_processed.sdf

>  <Selected Alignment_cresset>
true

>  <Alignment Cluster Centre_cresset>
true

>  <_cresset_fieldpoints>
-5      41.259769      48.170212      37.175037     -7.0507
-5      47.834637      49.928696      37.164463    -12.3754
-5      32.791931      45.948139      35.680382     -2.5853
-6      41.012356      54.017200      33.224018     11.9642
-6      35.699276      50.541153      33.253788      5.6703
-7      37.068520      49.392574      32.897057     -2.4262
-7      40.008308      47.916931      35.961639     -2.5597
-7      36.008045      48.984699      39.453838     -2.1453
-7      45.867428      54.292999      37.207512     -2.5809
-7      38.458805      54.475060      36.355713     -2.0629
-7      40.836376      54.155109      32.976334     -2.4029
-7      35.364197      50.388100      33.225994     -2.5500
-7      40.905903      52.544235      38.368668     -2.6486
-7      41.624302      48.807632      34.129047     -2.3362
-7      42.724113      48.604034      34.884476     -2.3842
-7      42.577858      56.086540      35.784664     -1.5516
-7      47.922562      52.158634      37.971344     -1.5329
-7      45.435902      49.149120      33.713814     -2.2710
-7      49.193092      54.124264      31.191393     -1.1405
-7      44.551617      53.404617      30.636221     -1.8015
-7      46.182640      54.751705      30.843525     -1.4069
-8      35.706783      49.793968      36.373775      7.2672
-8      39.495697      51.307762      35.946308      4.9782
-8      37.000462      51.170074      36.644917      5.6220
-8      47.398926      52.609978      33.827347      5.7173
-8      44.195633      50.849312      37.353027      2.7908
-8      43.559425      53.085590      34.136726      5.4445

$$$$
