@<TRIPOS>MOLECULE
bindingdb_similar_1x70_processed:15
 44 46 0 0 0
SMALL
GASTEIGER

@<TRIPOS>ATOM
      1 C          35.5408   48.4753   36.0200 C.ar    1  LIG1        0.1587
      2 C          34.4453   49.2638   36.3127 C.ar    1  LIG1        0.1584
      3 C          34.6270   50.5820   36.6664 C.ar    1  LIG1       -0.0233
      4 C          35.8959   51.1142   36.7222 C.ar    1  LIG1       -0.0555
      5 C          36.9907   50.3314   36.4269 C.ar    1  LIG1       -0.0392
      6 C          36.8078   49.0108   36.0814 C.ar    1  LIG1       -0.0202
      7 F          35.3775   47.1905   35.6728 F       1  LIG1       -0.2025
      8 F          33.2066   48.7525   36.2534 F       1  LIG1       -0.2025
      9 C          38.3979   50.9116   36.4667 C.3     1  LIG1        0.0160
     10 C          39.0755   51.0733   35.0860 C.3     1  LIG1       -0.0119
     11 C          40.4545   51.7551   35.2062 C.3     1  LIG1        0.0673
     12 C          41.4840   50.9702   35.9960 C.2     1  LIG1        0.2214
     13 N          38.2195   51.9265   34.1942 N.4     1  LIG1        0.2213
     14 O          41.2351   49.8579   36.4404 O.2     1  LIG1       -0.2754
     15 C          43.6811   50.9788   37.0448 C.3     1  LIG1        0.0746
     16 C          43.0264   52.8937   35.5306 C.3     1  LIG1        0.0332
     17 C          44.2442   52.6925   34.6026 C.3     1  LIG1        0.0422
     18 N          42.6658   51.6011   36.1693 N.am    1  LIG1       -0.2923
     19 C          45.0470   51.1726   36.4216 C.ar    1  LIG1        0.1512
     20 C          46.6141   51.8781   35.0452 C.ar    1  LIG1        0.2376
     21 N          45.2821   51.9478   35.3306 N.ar    1  LIG1       -0.3048
     22 N          46.1786   50.6649   36.7971 N.ar    1  LIG1       -0.1324
     23 N          47.1519   51.1035   35.9388 N.ar    1  LIG1       -0.1250
     24 C          47.3433   52.5559   33.8970 C.3     1  LIG1        0.4524
     25 F          47.1668   53.9352   33.9110 F       1  LIG1       -0.1632
     26 F          46.8878   52.0882   32.6688 F       1  LIG1       -0.1632
     27 F          48.7124   52.3166   33.9474 F       1  LIG1       -0.1632
     28 H          33.8353   51.1544   36.8808 H       1  LIG1        0.0647
     29 H          36.0224   52.0731   36.9759 H       1  LIG1        0.0621
     30 H          37.6002   48.4395   35.8682 H       1  LIG1        0.0650
     31 H          38.3818   51.9834   37.0075 H       1  LIG1        0.0368
     32 H          39.0671   50.1704   37.1310 H       1  LIG1        0.0368
     33 H          39.2103   49.9948   34.5762 H       1  LIG1        0.0858
     34 H          40.2652   52.8165   35.7336 H       1  LIG1        0.0414
     35 H          40.8689   51.8987   34.0884 H       1  LIG1        0.0414
     36 H          37.4082   51.5433   34.0512 H       1  LIG1        0.1997
     37 H          38.5984   52.0558   33.3779 H       1  LIG1        0.1997
     38 H          38.0719   52.7453   34.5611 H       1  LIG1        0.1997
     39 H          43.4689   49.8037   37.1597 H       1  LIG1        0.0545
     40 H          43.6514   51.4936   38.1278 H       1  LIG1        0.0545
     41 H          42.1811   53.4508   34.8913 H       1  LIG1        0.0482
     42 H          43.3622   53.6427   36.4052 H       1  LIG1        0.0482
     43 H          43.9125   52.0656   33.6345 H       1  LIG1        0.0508
     44 H          44.6605   53.7642   34.2619 H       1  LIG1        0.0508
@<TRIPOS>BOND
     1     1     2   ar
     2     1     6   ar
     3     1     7    1
     4     2     3   ar
     5     2     8    1
     6     3     4   ar
     7     3    28    1
     8     4     5   ar
     9     4    29    1
    10     5     6   ar
    11     5     9    1
    12     6    30    1
    13     9    31    1
    14     9    32    1
    15    10     9    1
    16    10    11    1
    17    10    13    1
    18    10    33    1
    19    11    12    1
    20    11    34    1
    21    11    35    1
    22    12    14    2
    23    12    18   am
    24    13    36    1
    25    13    37    1
    26    13    38    1
    27    15    18    1
    28    15    19    1
    29    15    39    1
    30    15    40    1
    31    16    17    1
    32    16    41    1
    33    16    42    1
    34    17    21    1
    35    17    43    1
    36    17    44    1
    37    18    16    1
    38    20    23   ar
    39    20    24    1
    40    21    19   ar
    41    21    20   ar
    42    22    19   ar
    43    22    23   ar
    44    24    25    1
    45    24    26    1
    46    24    27    1
