bindingdb_similar_1x70_processed:39
 OpenBabel04261912203D

 47 49  0  0  1  0  0  0  0  0999 V2000
   35.5398   48.4762   36.0201 C   0  0  0  0  0  0  0  0  0  0  0  0
   34.4464   49.2625   36.3128 C   0  0  0  0  0  0  0  0  0  0  0  0
   34.6244   50.5796   36.6660 C   0  0  0  0  0  0  0  0  0  0  0  0
   35.8930   51.1164   36.7229 C   0  0  0  0  0  0  0  0  0  0  0  0
   36.9923   50.3333   36.4276 C   0  0  0  0  0  0  0  0  0  0  0  0
   36.8078   49.0130   36.0817 C   0  0  0  0  0  0  0  0  0  0  0  0
   35.3771   47.1910   35.6727 F   0  0  0  0  0  0  0  0  0  0  0  0
   36.0442   52.4044   37.0653 F   0  0  0  0  0  0  0  0  0  0  0  0
   38.4036   50.9070   36.4663 C   0  0  0  0  0  0  0  0  0  0  0  0
   39.0766   51.0751   35.0853 C   0  0  2  0  0  0  0  0  0  0  0  0
   40.4566   51.7544   35.2039 C   0  0  0  0  0  0  0  0  0  0  0  0
   41.4848   50.9711   35.9959 C   0  0  0  0  0  0  0  0  0  0  0  0
   38.2192   51.9275   34.1954 N   0  3  0  0  0  0  0  0  0  0  0  0
   41.2353   49.8585   36.4402 O   0  0  0  0  0  0  0  0  0  0  0  0
   43.6802   50.9722   37.0461 C   0  0  1  0  0  0  0  0  0  0  0  0
   43.0246   52.8945   35.5265 C   0  0  0  0  0  0  0  0  0  0  0  0
   44.2441   52.6918   34.6017 C   0  0  0  0  0  0  0  0  0  0  0  0
   42.6668   51.6027   36.1707 N   0  0  0  0  0  0  0  0  0  0  0  0
   45.0462   51.1733   36.4233 C   0  0  0  0  0  0  0  0  0  0  0  0
   46.6138   51.8782   35.0455 C   0  0  0  0  0  0  0  0  0  0  0  0
   45.2816   51.9482   35.3316 N   0  0  0  0  0  0  0  0  0  0  0  0
   46.1784   50.6653   36.7971 N   0  0  0  0  0  0  0  0  0  0  0  0
   47.1517   51.1036   35.9387 N   0  0  0  0  0  0  0  0  0  0  0  0
   47.3430   52.5560   33.8972 C   0  0  0  0  0  0  0  0  0  0  0  0
   47.1663   53.9354   33.9111 F   0  0  0  0  0  0  0  0  0  0  0  0
   46.8874   52.0884   32.6690 F   0  0  0  0  0  0  0  0  0  0  0  0
   48.7121   52.3168   33.9474 F   0  0  0  0  0  0  0  0  0  0  0  0
   43.6048   51.5010   38.4890 C   0  0  0  0  0  0  0  0  0  0  0  0
   33.5248   48.8765   36.2686 H   0  0  0  0  0  0  0  0  0  0  0  0
   33.8322   51.1509   36.8808 H   0  0  0  0  0  0  0  0  0  0  0  0
   37.5995   48.4401   35.8695 H   0  0  0  0  0  0  0  0  0  0  0  0
   38.4113   51.9711   37.0212 H   0  0  0  0  0  0  0  0  0  0  0  0
   39.0749   50.1599   37.1208 H   0  0  0  0  0  0  0  0  0  0  0  0
   39.2058   49.9979   34.5736 H   0  0  0  0  0  0  0  0  0  0  0  0
   40.2718   52.8197   35.7248 H   0  0  0  0  0  0  0  0  0  0  0  0
   40.8688   51.8928   34.0852 H   0  0  0  0  0  0  0  0  0  0  0  0
   37.4001   51.5491   34.0715 H   0  0  0  0  0  0  0  0  0  0  0  0
   38.5928   52.0369   33.3712 H   0  0  0  0  0  0  0  0  0  0  0  0
   38.0893   52.7546   34.5571 H   0  0  0  0  0  0  0  0  0  0  0  0
   43.4727   49.7913   37.0854 H   0  0  0  0  0  0  0  0  0  0  0  0
   42.1800   53.4485   34.8838 H   0  0  0  0  0  0  0  0  0  0  0  0
   43.3567   53.6504   36.3964 H   0  0  0  0  0  0  0  0  0  0  0  0
   43.9123   52.0659   33.6329 H   0  0  0  0  0  0  0  0  0  0  0  0
   44.6611   53.7639   34.2628 H   0  0  0  0  0  0  0  0  0  0  0  0
   42.4816   51.3980   38.8993 H   0  0  0  0  0  0  0  0  0  0  0  0
   44.3406   50.8562   39.1840 H   0  0  0  0  0  0  0  0  0  0  0  0
   43.9394   52.6527   38.5238 H   0  0  0  0  0  0  0  0  0  0  0  0
  1  2  2  0  0  0  0
  1  6  1  0  0  0  0
  1  7  1  0  0  0  0
  2  3  1  0  0  0  0
  2 29  1  0  0  0  0
  3  4  2  0  0  0  0
  3 30  1  0  0  0  0
  4  5  1  0  0  0  0
  4  8  1  0  0  0  0
  5  6  2  0  0  0  0
  5  9  1  0  0  0  0
  6 31  1  0  0  0  0
  9 32  1  0  0  0  0
  9 33  1  0  0  0  0
 10  9  1  0  0  0  0
 10 11  1  0  0  0  0
 10 13  1  0  0  0  0
 10 34  1  6  0  0  0
 11 12  1  0  0  0  0
 11 35  1  0  0  0  0
 11 36  1  0  0  0  0
 12 14  2  0  0  0  0
 12 18  1  0  0  0  0
 13 37  1  0  0  0  0
 13 38  1  0  0  0  0
 13 39  1  0  0  0  0
 15 18  1  0  0  0  0
 15 19  1  0  0  0  0
 15 28  1  0  0  0  0
 15 40  1  1  0  0  0
 16 17  1  0  0  0  0
 16 41  1  0  0  0  0
 16 42  1  0  0  0  0
 17 21  1  0  0  0  0
 17 43  1  0  0  0  0
 17 44  1  0  0  0  0
 18 16  1  0  0  0  0
 20 23  2  0  0  0  0
 20 24  1  0  0  0  0
 21 19  1  0  0  0  0
 21 20  1  0  0  0  0
 22 19  2  0  0  0  0
 22 23  1  0  0  0  0
 24 25  1  0  0  0  0
 24 26  1  0  0  0  0
 24 27  1  0  0  0  0
 28 45  1  0  0  0  0
 28 46  1  0  0  0  0
 28 47  1  0  0  0  0
M  CHG  1  13   1
M  END
>  <Mean(IC50 fixed2)>
7.2

>  <First(BindingDB Ligand Name)>
Sitagliptin Analog 14

>  <Concatenate(Target Name Assigned by Curator or DataSource)>
Dipeptidyl Peptidase IV (DPP-IV)

>  <First(Target Source Organism According to Curator or DataSource)>
Homo sapiens (human)

>  <First(Curation/DataSource)>
Curated from the literature by BindingDB

>  <First(Article DOI)>
10.1016/j.bmcl.2006.09.099

>  <Mean(PMID)>
17055272

>  <First(Authors)>
Biftu, T; Feng, D; Qian, X; Liang, GB; Kieczykowski, G; Eiermann, G; He, H; Leiting, B; Lyons, K; Petrov, A; Sinha-Roy, R; Zhang, B; Scapin, G; Patel, S; Gao, YD; Singh, S; Wu, J; Zhang, X; Thornberry, NA; Weber, AE

>  <First(Institution)>
Merck Research Laboratories

>  <First(Link to Ligand in BindingDB)>
http://www.bindingdb.org/bind/chemsearch/marvin/MolStructure.jsp?monomerid=13515

>  <First(Link to Ligand-Target Pair in BindingDB)>
http://www.bindingdb.org/jsp/dbsearch/PrimarySearch_ki.jsp?energyterm=kJ/mole&tag=r21&monomerid=13515&enzyme=Dipeptidyl+Peptidase+IV+%28DPP-IV%29&column=ki&startPg=0&Increment=50&submit=Search

>  <Mean(PubChem CID)>
23646441

>  <Mean(PubChem SID)>
46513919

>  <First(ZINC ID of Ligand)>
ZINC13974778

>  <Concatenate*(UniProt (SwissProt) Entry Name of Target Chain)>
DPP4_HUMAN

>  <Mean(Number of Protein Chains in Target (>1 implies a multichain complex))>
1

>  <Median(pIC50)>
8.14266750356873

>  <Activity Classes>
8.14266750356873

>  <Conformer_cresset>
1

>  <Similarity_cresset>
0.863

>  <Favorite_cresset>
false

>  <Activity (Median(pIC50))_cresset>
8.14

>  <LE (Median(pIC50))_cresset>
0.407

>  <LipE (Median(pIC50))_cresset>
5.2

>  <Tags_cresset>
training

>  <Confs_cresset>
2

>  <Conf#_cresset>
1

>  <Alns_cresset>
2

>  <MW_cresset>
404.4

>  <#Atoms_cresset>
28

>  <SlogP_cresset>
3

>  <TPSA_cresset>
78.7

>  <Flexibility_cresset>
4.9

>  <#RB_cresset>
6

>  <Rof5_cresset>
0

>  <Filename_cresset>
bindingdb_similar_1x70_processed.sdf

>  <Selected Alignment_cresset>
true

>  <Alignment Cluster Centre_cresset>
true

>  <_cresset_fieldpoints>
-5      47.833809      49.896729      37.196491    -12.4591
-5      36.567066      48.666908      39.206276     -1.4786
-5      40.641129      48.192863      36.791565     -7.5846
-6      31.599613      50.418697      36.619846      4.5202
-6      42.048874      53.426617      32.686092     11.4307
-7      35.422970      50.367649      33.193977     -2.4140
-7      31.258095      50.295635      36.828377     -1.0148
-7      36.176601      49.062840      39.472931     -2.0488
-7      40.026798      47.930805      35.968307     -2.5638
-7      37.124554      49.376709      32.889168     -2.3859
-7      40.915543      49.376884      38.666260     -2.3440
-7      38.477608      54.472870      36.374645     -2.0577
-7      40.623356      52.977859      38.204304     -2.8359
-7      39.939034      54.381611      33.530632     -1.8786
-7      40.159916      50.311577      32.099060     -1.5173
-7      41.931767      53.323681      32.270847     -1.6923
-7      44.525883      54.118107      31.675983     -1.5859
-7      45.748089      54.353287      37.103321     -2.6160
-7      47.268097      48.717560      35.593822     -1.5163
-7      45.899109      48.773907      38.487244     -1.4443
-7      43.118793      49.619343      34.030712     -2.7622
-7      49.053513      54.151905      31.143299     -1.1104
-8      35.721443      49.799614      36.371487      7.2374
-8      39.515846      51.317009      35.936634      4.9411
-8      43.463505      53.289982      34.736504      3.8026
-8      44.131065      51.237816      37.780636      4.1902
-8      37.014179      51.175472      36.641735      5.6127
-8      47.361610      52.598938      33.828777      5.6573

$$$$
