@<TRIPOS>MOLECULE
bindingdb_similar_1x70_processed:36
 47 49 0 0 0
SMALL
GASTEIGER

@<TRIPOS>ATOM
      1 C          35.4638   48.4585   36.0891 C.ar    1  LIG1        0.1238
      2 C          34.3624   49.2382   36.3694 C.ar    1  LIG1       -0.0237
      3 C          34.5279   50.5599   36.7104 C.ar    1  LIG1       -0.0235
      4 C          35.7915   51.1079   36.7678 C.ar    1  LIG1        0.1269
      5 C          36.8989   50.3314   36.4857 C.ar    1  LIG1       -0.0042
      6 C          36.7266   49.0063   36.1513 C.ar    1  LIG1       -0.0204
      7 C          38.3062   50.9155   36.5262 C.3     1  LIG1        0.0187
      8 C          38.9835   51.0756   35.1452 C.3     1  LIG1       -0.0118
      9 C          40.3573   51.7685   35.2641 C.3     1  LIG1        0.0673
     10 C          41.3876   51.0005   36.0680 C.2     1  LIG1        0.2214
     11 N          38.1228   51.9137   34.2429 N.4     1  LIG1        0.2213
     12 O          41.1451   49.8905   36.5219 O.2     1  LIG1       -0.2754
     13 C          43.5792   51.0373   37.1261 C.3     1  LIG1        0.0746
     14 C          42.9169   52.9320   35.5895 C.3     1  LIG1        0.0332
     15 C          44.1424   52.7327   34.6703 C.3     1  LIG1        0.0419
     16 N          42.5632   51.6430   36.2403 N.am    1  LIG1       -0.2923
     17 C          44.9465   51.2359   36.5072 C.ar    1  LIG1        0.1510
     18 C          46.5143   51.9369   35.1306 C.ar    1  LIG1        0.1421
     19 N          45.1814   52.0018   35.4095 N.ar    1  LIG1       -0.3117
     20 N          46.0801   50.7409   36.8931 N.ar    1  LIG1       -0.1327
     21 N          47.0546   51.1787   36.0357 N.ar    1  LIG1       -0.1340
     22 F          35.3116   47.1693   35.7535 F       1  LIG1       -0.2055
     23 F          35.9305   52.4007   37.0984 F       1  LIG1       -0.2052
     24 C          47.2403   52.6176   33.9829 C.3     1  LIG1        0.1027
     25 C          48.4564   51.8383   33.4484 C.3     1  LIG1        0.3969
     26 F          49.4214   51.6891   34.4383 F       1  LIG1       -0.1703
     27 F          48.0902   50.5714   33.0057 F       1  LIG1       -0.1703
     28 F          49.0369   52.5132   32.3801 F       1  LIG1       -0.1703
     29 H          33.4447   48.8439   36.3249 H       1  LIG1        0.0647
     30 H          33.7294   51.1260   36.9155 H       1  LIG1        0.0647
     31 H          37.5238   48.4385   35.9471 H       1  LIG1        0.0650
     32 H          38.3016   51.9862   37.0692 H       1  LIG1        0.0369
     33 H          38.9804   50.1800   37.1924 H       1  LIG1        0.0369
     34 H          39.1246   49.9932   34.6451 H       1  LIG1        0.0858
     35 H          40.1611   52.8376   35.7736 H       1  LIG1        0.0414
     36 H          40.7734   51.8991   34.1455 H       1  LIG1        0.0414
     37 H          37.3064   51.5345   34.1209 H       1  LIG1        0.1997
     38 H          38.4928   52.0162   33.4189 H       1  LIG1        0.1997
     39 H          37.9866   52.7435   34.5889 H       1  LIG1        0.1997
     40 H          43.3759   49.8616   37.2514 H       1  LIG1        0.0545
     41 H          43.5401   51.5615   38.2045 H       1  LIG1        0.0545
     42 H          42.0707   53.4728   34.9378 H       1  LIG1        0.0482
     43 H          43.2380   53.6943   36.4584 H       1  LIG1        0.0482
     44 H          43.8185   52.0939   33.7070 H       1  LIG1        0.0508
     45 H          44.5641   53.8000   34.3211 H       1  LIG1        0.0508
     46 H          46.4643   52.7743   33.0808 H       1  LIG1        0.0432
     47 H          47.6177   53.6940   34.3559 H       1  LIG1        0.0432
@<TRIPOS>BOND
     1     1     2   ar
     2     1     6   ar
     3     1    22    1
     4     2     3   ar
     5     2    29    1
     6     3     4   ar
     7     3    30    1
     8     4     5   ar
     9     4    23    1
    10     5     6   ar
    11     5     7    1
    12     6    31    1
    13     7    32    1
    14     7    33    1
    15     8     7    1
    16     8     9    1
    17     8    11    1
    18     8    34    1
    19     9    10    1
    20     9    35    1
    21     9    36    1
    22    10    12    2
    23    10    16   am
    24    11    37    1
    25    11    38    1
    26    11    39    1
    27    13    16    1
    28    13    17    1
    29    13    40    1
    30    13    41    1
    31    14    15    1
    32    14    42    1
    33    14    43    1
    34    15    19    1
    35    15    44    1
    36    15    45    1
    37    16    14    1
    38    18    21   ar
    39    18    24    1
    40    19    17   ar
    41    19    18   ar
    42    20    17   ar
    43    20    21   ar
    44    24    25    1
    45    24    46    1
    46    24    47    1
    47    25    26    1
    48    25    27    1
    49    25    28    1
