@<TRIPOS>MOLECULE
bindingdb_similar_1x70_processed:63
 57 59 0 0 0
SMALL
GASTEIGER

@<TRIPOS>ATOM
      1 C          34.3982   49.1839   36.2632 C.ar    1  LIG1        0.1611
      2 C          34.5746   50.5022   36.6159 C.ar    1  LIG1        0.0119
      3 C          35.8418   51.0410   36.6787 C.ar    1  LIG1        0.1296
      4 C          36.9463   50.2618   36.3910 C.ar    1  LIG1       -0.0040
      5 C          36.7636   48.9412   36.0388 C.ar    1  LIG1       -0.0175
      6 C          35.4980   48.4009   35.9715 C.ar    1  LIG1        0.1588
      7 F          35.3386   47.1163   35.6215 F       1  LIG1       -0.2025
      8 F          33.1612   48.6686   36.2038 F       1  LIG1       -0.2024
      9 F          35.9847   52.3289   37.0244 F       1  LIG1       -0.2051
     10 C          38.3584   50.8363   36.4523 C.3     1  LIG1        0.0187
     11 C          39.0687   51.0279   35.0911 C.3     1  LIG1       -0.0118
     12 C          40.4424   51.7173   35.2602 C.3     1  LIG1        0.0673
     13 N          38.2291   51.8827   34.1798 N.4     1  LIG1        0.2213
     14 C          41.4648   50.9414   36.0703 C.2     1  LIG1        0.2216
     15 N          42.6458   51.5738   36.2590 N.am    1  LIG1       -0.2890
     16 C          43.0047   52.8750   35.6345 C.3     1  LIG1        0.0335
     17 C          44.2088   52.6763   34.6882 C.3     1  LIG1        0.0422
     18 C          43.6655   50.9268   37.1173 C.3     1  LIG1        0.0941
     19 N          46.1534   50.5964   36.8253 N.ar    1  LIG1       -0.1321
     20 C          45.0223   51.1213   36.4732 C.ar    1  LIG1        0.1548
     21 N          45.2515   51.9175   35.3955 N.ar    1  LIG1       -0.3046
     22 C          46.5822   51.8454   35.1001 C.ar    1  LIG1        0.2377
     23 N          47.1221   51.0476   35.9711 N.ar    1  LIG1       -0.1250
     24 C          47.3152   52.5419   33.9675 C.3     1  LIG1        0.4524
     25 F          46.8534   52.1032   32.7316 F       1  LIG1       -0.1632
     26 F          48.6822   52.2854   34.0179 F       1  LIG1       -0.1632
     27 F          47.1497   53.9216   34.0139 F       1  LIG1       -0.1632
     28 O          41.2109   49.8285   36.5111 O.2     1  LIG1       -0.2754
     29 C          43.6282   51.4330   38.5717 C.3     1  LIG1        0.0498
     30 C          42.2479   51.1735   39.1449 C.2     1  LIG1        0.2173
     31 O          41.7788   50.0440   39.1068 O.2     1  LIG1       -0.2755
     32 N          41.6038   52.2564   39.6324 N.am    1  LIG1       -0.3075
     33 C          42.2623   53.5327   39.9538 C.3     1  LIG1        0.0028
     34 C          40.1597   52.2008   39.8923 C.3     1  LIG1        0.0028
     35 H          33.7801   51.0717   36.8267 H       1  LIG1        0.0676
     36 H          37.5574   48.3704   35.8280 H       1  LIG1        0.0651
     37 H          38.3462   51.8957   37.0159 H       1  LIG1        0.0369
     38 H          39.0156   50.0863   37.1197 H       1  LIG1        0.0369
     39 H          39.2240   49.9534   34.5793 H       1  LIG1        0.0858
     40 H          40.2334   52.7733   35.7903 H       1  LIG1        0.0414
     41 H          40.8844   51.8796   34.1561 H       1  LIG1        0.0414
     42 H          37.4042   51.5216   34.0463 H       1  LIG1        0.1997
     43 H          38.6071   51.9822   33.3570 H       1  LIG1        0.1997
     44 H          38.1020   52.7176   34.5223 H       1  LIG1        0.1997
     45 H          42.1522   53.4467   35.0189 H       1  LIG1        0.0482
     46 H          43.3555   53.6170   36.5089 H       1  LIG1        0.0482
     47 H          43.8555   52.0534   33.7256 H       1  LIG1        0.0508
     48 H          44.6240   53.7456   34.3377 H       1  LIG1        0.0508
     49 H          43.4465   49.7485   37.1528 H       1  LIG1        0.0586
     50 H          44.4255   50.8006   39.2062 H       1  LIG1        0.0381
     51 H          43.9814   52.5760   38.5480 H       1  LIG1        0.0381
     52 H          43.3329   53.3396   40.4597 H       1  LIG1        0.0428
     53 H          41.6012   54.1355   40.7536 H       1  LIG1        0.0428
     54 H          42.3618   54.1996   38.9613 H       1  LIG1        0.0428
     55 H          39.6344   53.1278   39.3391 H       1  LIG1        0.0428
     56 H          39.9521   52.2756   41.0719 H       1  LIG1        0.0428
     57 H          39.7017   51.1788   39.4623 H       1  LIG1        0.0428
@<TRIPOS>BOND
     1     1     2   ar
     2     1     8    1
     3     2     3   ar
     4     2    35    1
     5     3     4   ar
     6     3     9    1
     7     4     5   ar
     8     4    10    1
     9     5     6   ar
    10     5    36    1
    11     6     1   ar
    12     6     7    1
    13    10    37    1
    14    10    38    1
    15    11    10    1
    16    11    12    1
    17    11    13    1
    18    11    39    1
    19    12    14    1
    20    12    40    1
    21    12    41    1
    22    13    42    1
    23    13    43    1
    24    13    44    1
    25    14    15   am
    26    14    28    2
    27    15    16    1
    28    15    18    1
    29    16    17    1
    30    16    45    1
    31    16    46    1
    32    17    21    1
    33    17    47    1
    34    17    48    1
    35    18    29    1
    36    18    49    1
    37    19    20   ar
    38    20    18    1
    39    20    21   ar
    40    21    22   ar
    41    22    23   ar
    42    22    24    1
    43    23    19   ar
    44    24    25    1
    45    24    26    1
    46    24    27    1
    47    29    30    1
    48    29    50    1
    49    29    51    1
    50    30    31    2
    51    30    32   am
    52    32    33    1
    53    32    34    1
    54    33    52    1
    55    33    53    1
    56    33    54    1
    57    34    55    1
    58    34    56    1
    59    34    57    1
