@<TRIPOS>MOLECULE
bindingdb_similar_1x70_processed:64
 54 57 0 0 0
SMALL
GASTEIGER

@<TRIPOS>ATOM
      1 C          34.4919   49.2442   36.4140 C.ar    1  LIG1        0.1611
      2 C          34.6816   50.5592   36.7723 C.ar    1  LIG1        0.0119
      3 C          35.9485   51.1019   36.7737 C.ar    1  LIG1        0.1296
      4 C          37.0366   50.3291   36.4172 C.ar    1  LIG1       -0.0040
      5 C          36.8420   49.0112   36.0634 C.ar    1  LIG1       -0.0175
      6 C          35.5767   48.4671   36.0583 C.ar    1  LIG1        0.1588
      7 C          38.4460   50.9078   36.4007 C.3     1  LIG1        0.0187
      8 C          39.0628   51.0928   34.9954 C.3     1  LIG1       -0.0118
      9 C          40.4699   51.7195   35.0890 C.3     1  LIG1        0.0673
     10 N          38.2012   51.9948   34.1544 N.4     1  LIG1        0.2213
     11 C          41.4856   50.8730   35.8335 C.2     1  LIG1        0.2216
     12 N          42.6627   51.4877   36.0902 N.am    1  LIG1       -0.2877
     13 O          41.2236   49.7277   36.1769 O.2     1  LIG1       -0.2754
     14 C          43.0484   52.8090   35.5207 C.3     1  LIG1        0.0351
     15 C          44.3529   52.7067   34.6992 C.3     1  LIG1        0.0593
     16 C          43.6248   50.8092   36.9907 C.3     1  LIG1        0.1048
     17 C          45.0215   51.0078   36.4402 C.ar    1  LIG1        0.1505
     18 N          45.3011   51.8685   35.4391 N.ar    1  LIG1       -0.2453
     19 N          46.6346   51.8099   35.2061 N.ar    1  LIG1       -0.1453
     20 C          47.1052   50.9394   36.0552 C.ar    1  LIG1        0.2548
     21 N          46.1347   50.4211   36.8371 N.ar    1  LIG1       -0.2060
     22 F          36.1080   52.3865   37.1236 F       1  LIG1       -0.2051
     23 F          33.2551   48.7261   36.4114 F       1  LIG1       -0.2024
     24 F          35.4036   47.1851   35.7052 F       1  LIG1       -0.2025
     25 C          48.5673   50.5593   36.1608 C.3     1  LIG1        0.4540
     26 F          48.7185   49.1816   36.2649 F       1  LIG1       -0.1631
     27 F          49.2934   50.9790   35.0512 F       1  LIG1       -0.1631
     28 F          49.1500   51.1323   37.2853 F       1  LIG1       -0.1631
     29 C          43.5352   51.3179   38.4435 C.3     1  LIG1        0.0671
     30 N          42.2149   51.2206   39.0778 N.ar    1  LIG1       -0.2692
     31 N          41.9061   50.3693   40.0871 N.ar    1  LIG1       -0.1796
     32 C          40.6683   50.5612   40.4659 C.ar    1  LIG1        0.0494
     33 C          40.1000   51.5793   39.6940 C.ar    1  LIG1       -0.0242
     34 C          41.0851   51.9432   38.8685 C.ar    1  LIG1        0.0256
     35 H          39.1438   50.0221   34.4597 H       1  LIG1        0.0858
     36 H          43.3970   49.6312   36.9937 H       1  LIG1        0.0600
     37 H          33.8976   51.1233   37.0310 H       1  LIG1        0.0676
     38 H          37.6255   48.4463   35.8045 H       1  LIG1        0.0651
     39 H          39.1426   50.1587   37.0269 H       1  LIG1        0.0369
     40 H          38.4714   51.9683   36.9618 H       1  LIG1        0.0369
     41 H          40.3371   52.7742   35.6462 H       1  LIG1        0.0414
     42 H          40.8528   51.8754   33.9621 H       1  LIG1        0.0414
     43 H          37.3580   51.6669   34.0593 H       1  LIG1        0.1997
     44 H          38.5317   52.1037   33.3132 H       1  LIG1        0.1997
     45 H          38.1212   52.8251   34.5187 H       1  LIG1        0.1997
     46 H          42.2545   53.3430   34.8013 H       1  LIG1        0.0483
     47 H          43.2548   53.5554   36.4366 H       1  LIG1        0.0483
     48 H          44.1182   52.1913   33.6412 H       1  LIG1        0.0525
     49 H          44.8134   53.8007   34.5225 H       1  LIG1        0.0525
     50 H          44.3067   50.6772   39.1025 H       1  LIG1        0.0532
     51 H          43.8847   52.4648   38.4793 H       1  LIG1        0.0532
     52 H          40.2022   50.0595   41.1946 H       1  LIG1        0.0848
     53 H          39.1727   51.9498   39.7483 H       1  LIG1        0.0648
     54 H          41.0006   52.6628   38.1792 H       1  LIG1        0.0826
@<TRIPOS>BOND
     1     1     2   ar
     2     1    23    1
     3     2     3   ar
     4     2    37    1
     5     3     4   ar
     6     3    22    1
     7     4     5   ar
     8     4     7    1
     9     5     6   ar
    10     5    38    1
    11     6     1   ar
    12     6    24    1
    13     7    39    1
    14     7    40    1
    15     8     7    1
    16     8     9    1
    17     8    10    1
    18     8    35    1
    19     9    11    1
    20     9    41    1
    21     9    42    1
    22    10    43    1
    23    10    44    1
    24    10    45    1
    25    11    12   am
    26    11    13    2
    27    12    14    1
    28    12    16    1
    29    14    15    1
    30    14    46    1
    31    14    47    1
    32    15    18    1
    33    15    48    1
    34    15    49    1
    35    16    29    1
    36    16    36    1
    37    17    16    1
    38    17    18   ar
    39    18    19   ar
    40    19    20   ar
    41    20    21   ar
    42    20    25    1
    43    21    17   ar
    44    25    26    1
    45    25    27    1
    46    25    28    1
    47    29    30    1
    48    29    50    1
    49    29    51    1
    50    30    31   ar
    51    31    32   ar
    52    32    33   ar
    53    32    52    1
    54    33    34   ar
    55    33    53    1
    56    34    30   ar
    57    34    54    1
