@<TRIPOS>MOLECULE
bindingdb_similar_1x70_processed:25
 44 46 0 0 0
SMALL
GASTEIGER

@<TRIPOS>ATOM
      1 C          35.5681   48.4324   36.1150 C.ar    1  LIG1        0.0414
      2 C          34.4689   49.2288   36.3478 C.ar    1  LIG1       -0.0407
      3 C          34.6394   50.5627   36.6355 C.ar    1  LIG1       -0.0248
      4 C          35.9055   51.1072   36.6834 C.ar    1  LIG1        0.1268
      5 C          37.0114   50.3181   36.4272 C.ar    1  LIG1       -0.0055
      6 C          36.8328   48.9787   36.1545 C.ar    1  LIG1       -0.0373
      7 CL         35.3583   46.7405   35.7618 Cl      1  LIG1       -0.0835
      8 F          36.0469   52.4100   36.9803 F       1  LIG1       -0.2052
      9 C          38.4193   50.9052   36.4391 C.3     1  LIG1        0.0186
     10 C          39.0846   51.0958   35.0541 C.3     1  LIG1       -0.0118
     11 C          40.4729   51.7621   35.1937 C.3     1  LIG1        0.0673
     12 N          38.2366   51.9674   34.1662 N.4     1  LIG1        0.2213
     13 C          41.4983   50.9639   35.9788 C.2     1  LIG1        0.2214
     14 N          42.6798   51.5918   36.1751 N.am    1  LIG1       -0.2923
     15 O          41.2480   49.8424   36.3999 O.2     1  LIG1       -0.2754
     16 C          43.6962   50.9534   37.0392 C.3     1  LIG1        0.0746
     17 C          43.0468   52.9006   35.5754 C.3     1  LIG1        0.0332
     18 C          44.2663   52.7210   34.6439 C.3     1  LIG1        0.0422
     19 N          45.3045   51.9570   35.3519 N.ar    1  LIG1       -0.3048
     20 C          45.0653   51.1558   36.4230 C.ar    1  LIG1        0.1512
     21 N          46.1956   50.6379   36.7894 N.ar    1  LIG1       -0.1324
     22 C          46.6378   51.8920   35.0688 C.ar    1  LIG1        0.2376
     23 N          47.1722   51.0955   35.9450 N.ar    1  LIG1       -0.1250
     24 C          47.3737   52.5947   33.9406 C.3     1  LIG1        0.4524
     25 F          48.7419   52.3487   33.9922 F       1  LIG1       -0.1632
     26 F          46.9222   52.1579   32.6996 F       1  LIG1       -0.1632
     27 F          47.2015   53.9737   33.9881 F       1  LIG1       -0.1632
     28 H          33.5492   48.8375   36.3086 H       1  LIG1        0.0633
     29 H          33.8420   51.1401   36.8125 H       1  LIG1        0.0647
     30 H          37.6281   48.3984   35.9787 H       1  LIG1        0.0636
     31 H          38.4147   51.9685   36.9964 H       1  LIG1        0.0369
     32 H          39.1116   50.1720   37.0894 H       1  LIG1        0.0369
     33 H          39.2140   50.0268   34.5234 H       1  LIG1        0.0858
     34 H          40.2927   52.8203   35.7302 H       1  LIG1        0.0414
     35 H          40.8958   51.9221   34.0823 H       1  LIG1        0.0414
     36 H          37.4111   51.6087   34.0322 H       1  LIG1        0.1997
     37 H          38.6061   52.0845   33.3421 H       1  LIG1        0.1997
     38 H          38.1143   52.7956   34.5240 H       1  LIG1        0.1997
     39 H          43.4830   49.7769   37.1416 H       1  LIG1        0.0545
     40 H          43.6707   51.4580   38.1280 H       1  LIG1        0.0545
     41 H          42.2039   53.4806   34.9539 H       1  LIG1        0.0482
     42 H          43.3858   53.6167   36.4764 H       1  LIG1        0.0482
     43 H          43.9306   52.1142   33.6645 H       1  LIG1        0.0508
     44 H          44.6819   53.7997   34.3242 H       1  LIG1        0.0508
@<TRIPOS>BOND
     1     1     2   ar
     2     1     6   ar
     3     1     7    1
     4     2     3   ar
     5     2    28    1
     6     3     4   ar
     7     3    29    1
     8     4     5   ar
     9     4     8    1
    10     5     6   ar
    11     5     9    1
    12     6    30    1
    13     9    31    1
    14     9    32    1
    15    10     9    1
    16    10    11    1
    17    10    12    1
    18    10    33    1
    19    11    13    1
    20    11    34    1
    21    11    35    1
    22    12    36    1
    23    12    37    1
    24    12    38    1
    25    13    14   am
    26    13    15    2
    27    14    17    1
    28    16    14    1
    29    16    20    1
    30    16    39    1
    31    16    40    1
    32    17    18    1
    33    17    41    1
    34    17    42    1
    35    18    19    1
    36    18    43    1
    37    18    44    1
    38    19    22   ar
    39    20    19   ar
    40    21    20   ar
    41    21    23   ar
    42    22    23   ar
    43    22    24    1
    44    24    25    1
    45    24    26    1
    46    24    27    1
