@<TRIPOS>MOLECULE
bindingdb_similar_1x70_processed:37
 50 53 0 0 0
SMALL
GASTEIGER

@<TRIPOS>ATOM
      1 C          34.3331   49.2415   36.3875 C.ar    1  LIG1       -0.0237
      2 C          34.5019   50.5538   36.7602 C.ar    1  LIG1       -0.0235
      3 C          35.7674   51.0946   36.8379 C.ar    1  LIG1        0.1269
      4 C          36.8728   50.3201   36.5422 C.ar    1  LIG1       -0.0042
      5 C          36.6975   49.0051   36.1728 C.ar    1  LIG1       -0.0204
      6 C          35.4322   48.4652   36.0924 C.ar    1  LIG1        0.1238
      7 C          38.2817   50.8957   36.6023 C.3     1  LIG1        0.0187
      8 C          38.9630   51.0889   35.2273 C.3     1  LIG1       -0.0118
      9 N          38.1107   51.9526   34.3381 N.4     1  LIG1        0.2213
     10 C          40.3408   51.7689   35.3739 C.3     1  LIG1        0.0673
     11 C          41.3656   50.9764   36.1631 C.2     1  LIG1        0.2214
     12 O          41.1179   49.8547   36.5864 O.2     1  LIG1       -0.2754
     13 N          42.5430   51.6116   36.3579 N.am    1  LIG1       -0.2923
     14 C          42.9092   52.9138   35.7425 C.3     1  LIG1        0.0332
     15 C          44.1302   52.7233   34.8135 C.3     1  LIG1        0.0422
     16 C          43.5560   50.9878   37.2344 C.3     1  LIG1        0.0746
     17 C          44.9264   51.1890   36.6222 C.ar    1  LIG1        0.1512
     18 N          45.1636   51.9521   35.5229 N.ar    1  LIG1       -0.3081
     19 C          46.4989   51.8596   35.2373 C.ar    1  LIG1        0.1644
     20 N          47.0370   51.1062   36.1575 N.ar    1  LIG1       -0.1291
     21 N          46.0567   50.6889   37.0156 N.ar    1  LIG1       -0.1324
     22 F          35.2704   47.1872   35.7248 F       1  LIG1       -0.2055
     23 C          47.1397   52.4500   34.0845 C.ar    1  LIG1        0.0221
     24 C          47.8086   53.6516   34.1408 C.ar    1  LIG1       -0.0329
     25 C          48.4114   54.1332   33.0044 C.ar    1  LIG1        0.0282
     26 N          48.3956   53.4968   31.8152 N.ar    1  LIG1       -0.2632
     27 C          47.7292   52.3258   31.7902 C.ar    1  LIG1        0.0282
     28 C          47.1004   51.7842   32.8818 C.ar    1  LIG1       -0.0329
     29 F          35.9098   52.3783   37.1999 F       1  LIG1       -0.2052
     30 H          33.4138   48.8510   36.3298 H       1  LIG1        0.0647
     31 H          33.7044   51.1181   36.9742 H       1  LIG1        0.0647
     32 H          37.4934   48.4396   35.9566 H       1  LIG1        0.0650
     33 H          38.2771   51.9526   37.1701 H       1  LIG1        0.0369
     34 H          38.9461   50.1443   37.2610 H       1  LIG1        0.0369
     35 H          39.1097   50.0160   34.7090 H       1  LIG1        0.0858
     36 H          37.2918   51.5826   34.1926 H       1  LIG1        0.1997
     37 H          38.4863   52.0853   33.5191 H       1  LIG1        0.1997
     38 H          37.9719   52.7734   34.7074 H       1  LIG1        0.1997
     39 H          40.1502   52.8257   35.9091 H       1  LIG1        0.0414
     40 H          40.7659   51.9253   34.2623 H       1  LIG1        0.0414
     41 H          42.0656   53.4818   35.1095 H       1  LIG1        0.0482
     42 H          43.2368   53.6438   36.6360 H       1  LIG1        0.0482
     43 H          43.7953   52.1160   33.8353 H       1  LIG1        0.0508
     44 H          44.5596   53.7972   34.4923 H       1  LIG1        0.0508
     45 H          43.3494   49.8087   37.3249 H       1  LIG1        0.0545
     46 H          43.5159   51.4874   38.3241 H       1  LIG1        0.0545
     47 H          47.8570   54.1667   34.9965 H       1  LIG1        0.0640
     48 H          48.8931   55.0070   33.0625 H       1  LIG1        0.0830
     49 H          47.6922   51.8219   30.9280 H       1  LIG1        0.0830
     50 H          46.6215   50.9099   32.8067 H       1  LIG1        0.0640
@<TRIPOS>BOND
     1     1     2   ar
     2     1    30    1
     3     2     3   ar
     4     2    31    1
     5     3     4   ar
     6     3    29    1
     7     4     5   ar
     8     4     7    1
     9     5     6   ar
    10     5    32    1
    11     6     1   ar
    12     6    22    1
    13     7    33    1
    14     7    34    1
    15     8     7    1
    16     8     9    1
    17     8    10    1
    18     8    35    1
    19     9    36    1
    20     9    37    1
    21     9    38    1
    22    10    11    1
    23    10    39    1
    24    10    40    1
    25    11    12    2
    26    11    13   am
    27    13    14    1
    28    13    16    1
    29    14    15    1
    30    14    41    1
    31    14    42    1
    32    15    18    1
    33    15    43    1
    34    15    44    1
    35    16    45    1
    36    16    46    1
    37    17    16    1
    38    17    18   ar
    39    18    19   ar
    40    19    20   ar
    41    19    23    1
    42    20    21   ar
    43    21    17   ar
    44    23    24   ar
    45    24    25   ar
    46    24    47    1
    47    25    26   ar
    48    25    48    1
    49    26    27   ar
    50    27    28   ar
    51    27    49    1
    52    28    23   ar
    53    28    50    1
