@<TRIPOS>MOLECULE
Copy of bindingdb_similar_1x70_processed:59
 50 52 0 0 0
SMALL
GASTEIGER

@<TRIPOS>ATOM
      1 C          34.4314   49.2776   36.3353 C.ar    1  LIG1        0.1611
      2 C          34.6116   50.5953   36.6886 C.ar    1  LIG1        0.0119
      3 C          35.8804   51.1302   36.7481 C.ar    1  LIG1        0.1296
      4 C          36.9798   50.3459   36.4569 C.ar    1  LIG1       -0.0040
      5 C          36.7948   49.0245   36.1111 C.ar    1  LIG1       -0.0175
      6 C          35.5276   48.4889   36.0461 C.ar    1  LIG1        0.1588
      7 F          35.3641   47.2037   35.6994 F       1  LIG1       -0.2025
      8 F          33.1927   48.7679   36.2731 F       1  LIG1       -0.2024
      9 F          36.0316   52.4182   37.0898 F       1  LIG1       -0.2051
     10 C          38.3917   50.9178   36.4999 C.3     1  LIG1        0.0187
     11 C          39.0685   51.0840   35.1197 C.3     1  LIG1       -0.0118
     12 C          40.4494   51.7625   35.2415 C.3     1  LIG1        0.0673
     13 N          38.2140   51.9365   34.2264 N.4     1  LIG1        0.2213
     14 C          41.4751   50.9790   36.0363 C.2     1  LIG1        0.2216
     15 N          42.6582   51.6094   36.2117 N.am    1  LIG1       -0.2892
     16 C          43.0154   52.9011   35.5664 C.3     1  LIG1        0.0335
     17 C          44.2392   52.6972   34.6485 C.3     1  LIG1        0.0422
     18 C          43.6661   50.9842   37.0999 C.3     1  LIG1        0.0940
     19 N          46.1645   50.6699   36.8501 N.ar    1  LIG1       -0.1321
     20 C          45.0332   51.1776   36.4718 C.ar    1  LIG1        0.1546
     21 N          45.2732   51.9520   35.3810 N.ar    1  LIG1       -0.3046
     22 C          46.6063   51.8811   35.0993 C.ar    1  LIG1        0.2377
     23 N          47.1411   51.1066   35.9946 N.ar    1  LIG1       -0.1250
     24 C          47.3393   52.5574   33.9526 C.3     1  LIG1        0.4524
     25 F          48.7079   52.3172   34.0067 F       1  LIG1       -0.1632
     26 F          46.8866   52.0895   32.7234 F       1  LIG1       -0.1632
     27 F          47.1637   53.9370   33.9651 F       1  LIG1       -0.1632
     28 O          41.2222   49.8670   36.4805 O.2     1  LIG1       -0.2754
     29 C          43.6491   51.5337   38.5428 C.3     1  LIG1        0.0684
     30 C          42.3460   51.2251   39.3045 C.3     1  LIG1        0.3923
     31 F          42.4448   51.6716   40.6160 F       1  LIG1       -0.1707
     32 F          41.2524   51.8586   38.7236 F       1  LIG1       -0.1707
     33 F          42.0966   49.8584   39.3410 F       1  LIG1       -0.1707
     34 H          33.8192   51.1674   36.9004 H       1  LIG1        0.0676
     35 H          37.5865   48.4514   35.9007 H       1  LIG1        0.0651
     36 H          38.3991   51.9837   37.0510 H       1  LIG1        0.0369
     37 H          39.0593   50.1707   37.1579 H       1  LIG1        0.0369
     38 H          39.1988   50.0053   34.6090 H       1  LIG1        0.0858
     39 H          40.2640   52.8294   35.7590 H       1  LIG1        0.0414
     40 H          40.8619   51.8970   34.1221 H       1  LIG1        0.0414
     41 H          37.3934   51.5642   34.1010 H       1  LIG1        0.1997
     42 H          38.5847   52.0445   33.4020 H       1  LIG1        0.1997
     43 H          38.0837   52.7652   34.5814 H       1  LIG1        0.1997
     44 H          42.1743   53.4435   34.9097 H       1  LIG1        0.0482
     45 H          43.3339   53.6727   36.4275 H       1  LIG1        0.0482
     46 H          43.9092   52.0700   33.6801 H       1  LIG1        0.0508
     47 H          44.6573   53.7688   34.3092 H       1  LIG1        0.0508
     48 H          43.4714   49.8005   37.1367 H       1  LIG1        0.0585
     49 H          43.8161   52.7212   38.5228 H       1  LIG1        0.0374
     50 H          44.5535   51.0340   39.1532 H       1  LIG1        0.0374
@<TRIPOS>BOND
     1     1     2   ar
     2     1     8    1
     3     2     3   ar
     4     2    34    1
     5     3     4   ar
     6     3     9    1
     7     4     5   ar
     8     4    10    1
     9     5     6   ar
    10     5    35    1
    11     6     1   ar
    12     6     7    1
    13    10    36    1
    14    10    37    1
    15    11    10    1
    16    11    12    1
    17    11    13    1
    18    11    38    1
    19    12    14    1
    20    12    39    1
    21    12    40    1
    22    13    41    1
    23    13    42    1
    24    13    43    1
    25    14    15   am
    26    14    28    2
    27    15    16    1
    28    15    18    1
    29    16    17    1
    30    16    44    1
    31    16    45    1
    32    17    21    1
    33    17    46    1
    34    17    47    1
    35    18    29    1
    36    18    48    1
    37    19    20   ar
    38    20    18    1
    39    20    21   ar
    40    21    22   ar
    41    22    23   ar
    42    22    24    1
    43    23    19   ar
    44    24    25    1
    45    24    26    1
    46    24    27    1
    47    29    30    1
    48    29    49    1
    49    29    50    1
    50    30    31    1
    51    30    32    1
    52    30    33    1
