@<TRIPOS>MOLECULE
bindingdb_similar_1x70_processed:69
 56 59 0 0 0
SMALL
GASTEIGER

@<TRIPOS>ATOM
      1 C          34.4457   49.2636   36.3132 C.ar    1  LIG1        0.1611
      2 C          34.6255   50.5815   36.6652 C.ar    1  LIG1        0.0119
      3 C          35.8942   51.1174   36.7223 C.ar    1  LIG1        0.1296
      4 C          36.9937   50.3343   36.4289 C.ar    1  LIG1       -0.0040
      5 C          36.8087   49.0131   36.0819 C.ar    1  LIG1       -0.0175
      6 C          35.5420   48.4760   36.0208 C.ar    1  LIG1        0.1588
      7 F          35.3789   47.1909   35.6743 F       1  LIG1       -0.2025
      8 F          33.2074   48.7524   36.2542 F       1  LIG1       -0.2024
      9 F          36.0442   52.4059   37.0631 F       1  LIG1       -0.2051
     10 C          38.4065   50.9058   36.4667 C.3     1  LIG1        0.0187
     11 C          39.0753   51.0735   35.0823 C.3     1  LIG1       -0.0118
     12 C          40.4559   51.7520   35.2026 C.3     1  LIG1        0.0673
     13 N          38.2178   51.9280   34.1901 N.4     1  LIG1        0.2213
     14 C          41.4859   50.9716   35.9968 C.2     1  LIG1        0.2216
     15 N          42.6662   51.6058   36.1735 N.am    1  LIG1       -0.2891
     16 C          43.0246   52.8952   35.5241 C.3     1  LIG1        0.0335
     17 C          44.2454   52.6922   34.6016 C.3     1  LIG1        0.0422
     18 C          43.6735   50.9762   37.0575 C.3     1  LIG1        0.0912
     19 N          46.1768   50.6664   36.7974 N.ar    1  LIG1       -0.1321
     20 C          45.0436   51.1772   36.4283 C.ar    1  LIG1        0.1547
     21 N          45.2813   51.9482   35.3324 N.ar    1  LIG1       -0.3046
     22 C          46.6132   51.8774   35.0440 C.ar    1  LIG1        0.2377
     23 N          47.1510   51.1031   35.9372 N.ar    1  LIG1       -0.1250
     24 C          47.3434   52.5553   33.8959 C.3     1  LIG1        0.4524
     25 F          47.1686   53.9349   33.9093 F       1  LIG1       -0.1632
     26 F          48.7129   52.3154   33.9456 F       1  LIG1       -0.1632
     27 F          46.8877   52.0881   32.6680 F       1  LIG1       -0.1632
     28 O          41.2369   49.8584   36.4400 O.2     1  LIG1       -0.2754
     29 C          43.5839   51.4739   38.5194 C.3     1  LIG1        0.0154
     30 C          42.2684   51.1955   39.2399 C.ar    1  LIG1        0.0435
     31 C          42.1976   50.0971   40.0660 C.ar    1  LIG1       -0.0403
     32 C          41.0289   49.8206   40.7255 C.ar    1  LIG1       -0.0586
     33 C          39.9625   50.6582   40.5369 C.ar    1  LIG1       -0.0436
     34 C          40.1025   51.7407   39.7019 C.ar    1  LIG1        0.0279
     35 N          41.2377   52.0408   39.0398 N.ar    1  LIG1       -0.2598
     36 H          33.8330   51.1530   36.8783 H       1  LIG1        0.0676
     37 H          37.6005   48.4413   35.8679 H       1  LIG1        0.0651
     38 H          38.4116   51.9727   37.0163 H       1  LIG1        0.0369
     39 H          39.0727   50.1597   37.1291 H       1  LIG1        0.0369
     40 H          39.2101   49.9933   34.5786 H       1  LIG1        0.0858
     41 H          40.2730   52.8186   35.7220 H       1  LIG1        0.0414
     42 H          40.8683   51.8873   34.0832 H       1  LIG1        0.0414
     43 H          37.3922   51.5658   34.0739 H       1  LIG1        0.1997
     44 H          38.5778   52.0290   33.3604 H       1  LIG1        0.1997
     45 H          38.0968   52.7611   34.5360 H       1  LIG1        0.1997
     46 H          42.1814   53.4406   34.8721 H       1  LIG1        0.0482
     47 H          43.3519   53.6614   36.3866 H       1  LIG1        0.0482
     48 H          43.9151   52.0630   33.6348 H       1  LIG1        0.0508
     49 H          44.6609   53.7638   34.2580 H       1  LIG1        0.0508
     50 H          43.4765   49.7923   37.0735 H       1  LIG1        0.0585
     51 H          44.4825   50.9611   39.1277 H       1  LIG1        0.0351
     52 H          43.7686   52.6593   38.5298 H       1  LIG1        0.0351
     53 H          42.9933   49.5038   40.1830 H       1  LIG1        0.0635
     54 H          40.9559   49.0250   41.3293 H       1  LIG1        0.0619
     55 H          39.0939   50.4847   41.0014 H       1  LIG1        0.0633
     56 H          39.3126   52.3415   39.5777 H       1  LIG1        0.0829
@<TRIPOS>BOND
     1     1     2   ar
     2     1     8    1
     3     2     3   ar
     4     2    36    1
     5     3     4   ar
     6     3     9    1
     7     4     5   ar
     8     4    10    1
     9     5     6   ar
    10     5    37    1
    11     6     1   ar
    12     6     7    1
    13    10    38    1
    14    10    39    1
    15    11    10    1
    16    11    12    1
    17    11    13    1
    18    11    40    1
    19    12    14    1
    20    12    41    1
    21    12    42    1
    22    13    43    1
    23    13    44    1
    24    13    45    1
    25    14    15   am
    26    14    28    2
    27    15    16    1
    28    15    18    1
    29    16    17    1
    30    16    46    1
    31    16    47    1
    32    17    21    1
    33    17    48    1
    34    17    49    1
    35    18    29    1
    36    18    50    1
    37    19    20   ar
    38    20    18    1
    39    20    21   ar
    40    21    22   ar
    41    22    23   ar
    42    22    24    1
    43    23    19   ar
    44    24    25    1
    45    24    26    1
    46    24    27    1
    47    29    30    1
    48    29    51    1
    49    29    52    1
    50    30    31   ar
    51    31    32   ar
    52    31    53    1
    53    32    33   ar
    54    32    54    1
    55    33    34   ar
    56    33    55    1
    57    34    35   ar
    58    34    56    1
    59    35    30   ar
