bindingdb_similar_1x70_processed:72
 OpenBabel04261912203D

 61 64  0  0  1  0  0  0  0  0999 V2000
   34.4450   49.2629   36.3176 C   0  0  0  0  0  0  0  0  0  0  0  0
   34.6250   50.5811   36.6688 C   0  0  0  0  0  0  0  0  0  0  0  0
   35.8934   51.1171   36.7261 C   0  0  0  0  0  0  0  0  0  0  0  0
   36.9926   50.3336   36.4324 C   0  0  0  0  0  0  0  0  0  0  0  0
   36.8079   49.0125   36.0864 C   0  0  0  0  0  0  0  0  0  0  0  0
   35.5411   48.4753   36.0256 C   0  0  0  0  0  0  0  0  0  0  0  0
   35.3781   47.1901   35.6795 F   0  0  0  0  0  0  0  0  0  0  0  0
   33.2067   48.7514   36.2591 F   0  0  0  0  0  0  0  0  0  0  0  0
   36.0431   52.4058   37.0657 F   0  0  0  0  0  0  0  0  0  0  0  0
   38.4040   50.9057   36.4692 C   0  0  0  0  0  0  0  0  0  0  0  0
   39.0731   51.0758   35.0854 C   0  0  2  0  0  0  0  0  0  0  0  0
   40.4559   51.7515   35.2056 C   0  0  0  0  0  0  0  0  0  0  0  0
   38.2137   51.9276   34.1897 N   0  3  0  0  0  0  0  0  0  0  0  0
   41.4870   50.9701   35.9977 C   0  0  0  0  0  0  0  0  0  0  0  0
   42.6703   51.6020   36.1695 N   0  0  0  0  0  0  0  0  0  0  0  0
   43.0256   52.8940   35.5242 C   0  0  0  0  0  0  0  0  0  0  0  0
   44.2464   52.6930   34.6016 C   0  0  0  0  0  0  0  0  0  0  0  0
   43.6811   50.9764   37.0547 C   0  0  1  0  0  0  0  0  0  0  0  0
   46.1786   50.6649   36.7971 N   0  0  0  0  0  0  0  0  0  0  0  0
   45.0461   51.1736   36.4244 C   0  0  0  0  0  0  0  0  0  0  0  0
   45.2825   51.9481   35.3317 N   0  0  0  0  0  0  0  0  0  0  0  0
   46.6145   51.8772   35.0455 C   0  0  0  0  0  0  0  0  0  0  0  0
   47.1522   51.1028   35.9391 N   0  0  0  0  0  0  0  0  0  0  0  0
   47.3441   52.5544   33.8971 C   0  0  0  0  0  0  0  0  0  0  0  0
   47.1690   53.9341   33.9117 F   0  0  0  0  0  0  0  0  0  0  0  0
   46.8880   52.0876   32.6688 F   0  0  0  0  0  0  0  0  0  0  0  0
   48.7127   52.3133   33.9480 F   0  0  0  0  0  0  0  0  0  0  0  0
   41.2378   49.8582   36.4440 O   0  0  0  0  0  0  0  0  0  0  0  0
   43.6281   51.4858   38.5148 C   0  0  0  0  0  0  0  0  0  0  0  0
   42.3225   51.2017   39.2457 C   0  0  0  0  0  0  0  0  0  0  0  0
   41.2361   52.0345   39.0836 C   0  0  0  0  0  0  0  0  0  0  0  0
   40.0407   51.7518   39.7024 C   0  0  0  0  0  0  0  0  0  0  0  0
   39.9115   50.6303   40.5064 C   0  0  0  0  0  0  0  0  0  0  0  0
   41.0150   49.8172   40.6867 C   0  0  0  0  0  0  0  0  0  0  0  0
   42.2080   50.1009   40.0661 C   0  0  0  0  0  0  0  0  0  0  0  0
   38.7647   50.2931   41.1122 O   0  0  0  0  0  0  0  0  0  0  0  0
   37.6750   51.2370   41.1304 C   0  0  0  0  0  0  0  0  0  0  0  0
   33.8326   51.1530   36.8808 H   0  0  0  0  0  0  0  0  0  0  0  0
   37.5997   48.4407   35.8722 H   0  0  0  0  0  0  0  0  0  0  0  0
   38.4099   51.9718   37.0189 H   0  0  0  0  0  0  0  0  0  0  0  0
   39.0707   50.1617   37.1332 H   0  0  0  0  0  0  0  0  0  0  0  0
   39.2094   49.9939   34.5844 H   0  0  0  0  0  0  0  0  0  0  0  0
   40.2731   52.8177   35.7247 H   0  0  0  0  0  0  0  0  0  0  0  0
   40.8671   51.8852   34.0859 H   0  0  0  0  0  0  0  0  0  0  0  0
   37.3874   51.5636   34.0712 H   0  0  0  0  0  0  0  0  0  0  0  0
   38.5756   52.0304   33.3597 H   0  0  0  0  0  0  0  0  0  0  0  0
   38.0906   52.7613   34.5369 H   0  0  0  0  0  0  0  0  0  0  0  0
   42.1814   53.4405   34.8747 H   0  0  0  0  0  0  0  0  0  0  0  0
   43.3511   53.6585   36.3891 H   0  0  0  0  0  0  0  0  0  0  0  0
   43.9151   52.0616   33.6362 H   0  0  0  0  0  0  0  0  0  0  0  0
   44.6603   53.7647   34.2566 H   0  0  0  0  0  0  0  0  0  0  0  0
   43.4816   49.7933   37.0749 H   0  0  0  0  0  0  0  0  0  0  0  0
   44.5259   50.9564   39.1116 H   0  0  0  0  0  0  0  0  0  0  0  0
   43.8292   52.6689   38.5207 H   0  0  0  0  0  0  0  0  0  0  0  0
   41.3150   52.8442   38.5019 H   0  0  0  0  0  0  0  0  0  0  0  0
   39.2605   52.3613   39.5668 H   0  0  0  0  0  0  0  0  0  0  0  0
   40.9439   49.0080   41.2709 H   0  0  0  0  0  0  0  0  0  0  0  0
   42.9944   49.4983   40.2019 H   0  0  0  0  0  0  0  0  0  0  0  0
   36.7650   50.7512   41.7446 H   0  0  0  0  0  0  0  0  0  0  0  0
   37.3022   51.4854   40.0173 H   0  0  0  0  0  0  0  0  0  0  0  0
   38.0259   52.2453   41.6783 H   0  0  0  0  0  0  0  0  0  0  0  0
  1  2  2  0  0  0  0
  1  8  1  0  0  0  0
  2  3  1  0  0  0  0
  2 38  1  0  0  0  0
  3  4  2  0  0  0  0
  3  9  1  0  0  0  0
  4  5  1  0  0  0  0
  4 10  1  0  0  0  0
  5  6  2  0  0  0  0
  5 39  1  0  0  0  0
  6  1  1  0  0  0  0
  6  7  1  0  0  0  0
 10 40  1  0  0  0  0
 10 41  1  0  0  0  0
 11 10  1  0  0  0  0
 11 12  1  0  0  0  0
 11 13  1  0  0  0  0
 11 42  1  6  0  0  0
 12 14  1  0  0  0  0
 12 43  1  0  0  0  0
 12 44  1  0  0  0  0
 13 45  1  0  0  0  0
 13 46  1  0  0  0  0
 13 47  1  0  0  0  0
 14 15  1  0  0  0  0
 14 28  2  0  0  0  0
 15 16  1  0  0  0  0
 15 18  1  0  0  0  0
 16 17  1  0  0  0  0
 16 48  1  0  0  0  0
 16 49  1  0  0  0  0
 17 21  1  0  0  0  0
 17 50  1  0  0  0  0
 17 51  1  0  0  0  0
 18 29  1  0  0  0  0
 18 52  1  1  0  0  0
 19 20  2  0  0  0  0
 20 18  1  0  0  0  0
 20 21  1  0  0  0  0
 21 22  1  0  0  0  0
 22 23  2  0  0  0  0
 22 24  1  0  0  0  0
 23 19  1  0  0  0  0
 24 25  1  0  0  0  0
 24 26  1  0  0  0  0
 24 27  1  0  0  0  0
 29 30  1  0  0  0  0
 29 53  1  0  0  0  0
 29 54  1  0  0  0  0
 30 31  2  0  0  0  0
 31 32  1  0  0  0  0
 31 55  1  0  0  0  0
 32 33  2  0  0  0  0
 32 56  1  0  0  0  0
 33 34  1  0  0  0  0
 33 36  1  0  0  0  0
 34 35  2  0  0  0  0
 34 57  1  0  0  0  0
 35 30  1  0  0  0  0
 35 58  1  0  0  0  0
 36 37  1  0  0  0  0
 37 59  1  0  0  0  0
 37 60  1  0  0  0  0
 37 61  1  0  0  0  0
M  CHG  1  13   1
M  END
>  <Mean(IC50 fixed2)>
160.215

>  <First(BindingDB Ligand Name)>
CHEMBL539352

>  <Concatenate(Target Name Assigned by Curator or DataSource)>
Dipeptidyl Peptidase IV (DPP-IV), Dipeptidyl Peptidase IV (DPP-IV)

>  <First(Target Source Organism According to Curator or DataSource)>
Homo sapiens

>  <First(Curation/DataSource)>
ChEMBL

>  <First(Article DOI)>
10.1021/jm070330v

>  <Mean(PMID)>
18201067

>  <First(Authors)>
Kim, D; Kowalchick, JE; Brockunier, LL; Parmee, ER; Eiermann, GJ; Fisher, MH; He, H; Leiting, B; Lyons, K; Scapin, G; Patel, SB; Petrov, A; Pryor, KD; Roy, RS; Wu, JK; Zhang, X; Wyvratt, MJ; Zhang, BB; Zhu, L; Thornberry, NA; Weber, AE

>  <First(Institution)>
Merck Research Laboratories<span class=m1fontSize>Curated by</span> <a href=http://www.ebi.ac.uk/chembl/>ChEMBL</a>

>  <First(Link to Ligand in BindingDB)>
http://www.bindingdb.org/bind/chemsearch/marvin/MolStructure.jsp?monomerid=50232503

>  <First(Link to Ligand-Target Pair in BindingDB)>
http://www.bindingdb.org/jsp/dbsearch/PrimarySearch_ki.jsp?energyterm=kJ/mole&tag=r21&monomerid=50232503&enzyme=Dipeptidyl+Peptidase+IV+%28DPP-IV%29&column=ki&startPg=0&Increment=50&submit=Search

>  <Mean(PubChem CID)>
44445054

>  <Mean(PubChem SID)>
104055515

>  <First(ZINC ID of Ligand)>
ZINC28967922

>  <Concatenate*(UniProt (SwissProt) Entry Name of Target Chain)>
DPP4_HUMAN, DPP4_HUMAN

>  <Mean(Number of Protein Chains in Target (>1 implies a multichain complex))>
1

>  <Median(pIC50)>
9.367

>  <Journal>
JMedChem2008

>  <Activity Classes>
9.367

>  <Conformer_cresset>
1

>  <Similarity_cresset>
0.981

>  <Favorite_cresset>
false

>  <Activity (Median(pIC50))_cresset>
9.37

>  <LE (Median(pIC50))_cresset>
0.355

>  <LipE (Median(pIC50))_cresset>
4.7

>  <Tags_cresset>
training

>  <Confs_cresset>
2

>  <Conf#_cresset>
1

>  <Alns_cresset>
2

>  <MW_cresset>
528.5

>  <#Atoms_cresset>
37

>  <SlogP_cresset>
4.6

>  <TPSA_cresset>
87.9

>  <Flexibility_cresset>
7.4

>  <#RB_cresset>
9

>  <Rof5_cresset>
1

>  <Filename_cresset>
bindingdb_similar_1x70_processed.sdf

>  <Notes_cresset>
43b

>  <Selected Alignment_cresset>
true

>  <Alignment Cluster Centre_cresset>
true

>  <_cresset_fieldpoints>
-5      32.809551      45.938576      35.716743     -2.7742
-5      40.938908      48.593090      37.718704    -11.0852
-5      47.844765      49.881222      37.171242    -11.8969
-5      41.943974      52.070648      42.500275     -3.1188
-6      35.585670      50.702789      33.313118      5.5946
-6      35.439568      52.874771      34.044964      5.1320
-6      41.098961      54.696602      36.659527     11.0194
-6      42.037968      53.442524      32.693241     11.9269
-6      43.571320      47.851414      41.683681      1.3514
-6      45.072483      49.235600      40.811764      1.5097
-7      37.089188      49.391979      32.897305     -2.4254
-7      37.628754      48.618393      39.187111     -3.3160
-7      35.366493      50.390099      33.227940     -2.5485
-7      39.179203      54.234314      37.516373     -2.7364
-7      40.914036      54.751945      37.156113     -2.3885
-7      39.947861      54.376644      33.529331     -1.8953
-7      40.154594      50.298988      32.104740     -1.5201
-7      41.932838      53.300205      32.264362     -1.6965
-7      44.528297      54.114086      31.673620     -1.5841
-7      42.582420      54.958168      38.393490     -2.0270
-7      44.869423      48.359837      38.795837     -2.0728
-7      49.056911      54.146496      31.144344     -1.1105
-7      45.716366      54.300617      37.187286     -2.6953
-7      47.246914      48.712036      35.611557     -1.5254
-7      40.356873      48.240246      37.803783     -3.3137
-7      43.125252      49.607475      34.056625     -2.8150
-7      42.020355      52.726494      42.398731     -1.9019
-8      35.716110      49.796112      36.375408      7.2708
-8      41.152950      50.933556      39.861069      7.0711
-8      39.515373      51.322559      35.952782      4.9911
-8      43.464451      53.286945      34.741257      3.8106
-8      47.363636      52.597931      33.826611      5.6578
-8      37.102814      51.838814      41.067379      2.5195
-8      37.018772      51.178234      36.656445      5.6410

$$$$
