bindingdb_similar_1x70_processed:22
 OpenBabel04261912203D

 44 46  0  0  1  0  0  0  0  0999 V2000
   34.4916   49.3102   36.2613 C   0  0  0  0  0  0  0  0  0  0  0  0
   35.5861   48.4761   36.1504 C   0  0  0  0  0  0  0  0  0  0  0  0
   36.8568   48.9979   36.2570 C   0  0  0  0  0  0  0  0  0  0  0  0
   37.0384   50.3454   36.4767 C   0  0  0  0  0  0  0  0  0  0  0  0
   35.9425   51.1695   36.6107 C   0  0  0  0  0  0  0  0  0  0  0  0
   34.6726   50.6538   36.5009 C   0  0  0  0  0  0  0  0  0  0  0  0
   38.4364   50.9398   36.5376 C   0  0  0  0  0  0  0  0  0  0  0  0
   39.1036   51.1028   35.1516 C   0  0  1  0  0  0  0  0  0  0  0  0
   38.2437   51.9557   34.2581 N   0  3  0  0  0  0  0  0  0  0  0  0
   40.4825   51.7815   35.2722 C   0  0  0  0  0  0  0  0  0  0  0  0
   41.5152   50.9768   36.0353 C   0  0  0  0  0  0  0  0  0  0  0  0
   41.2632   49.8547   36.4531 O   0  0  0  0  0  0  0  0  0  0  0  0
   42.7010   51.6008   36.2126 N   0  0  0  0  0  0  0  0  0  0  0  0
   43.0648   52.9042   35.5992 C   0  0  0  0  0  0  0  0  0  0  0  0
   44.2759   52.7206   34.6564 C   0  0  0  0  0  0  0  0  0  0  0  0
   43.7225   50.9627   37.0674 C   0  0  0  0  0  0  0  0  0  0  0  0
   45.0847   51.1601   36.4354 C   0  0  0  0  0  0  0  0  0  0  0  0
   45.3175   51.9557   35.3585 N   0  0  0  0  0  0  0  0  0  0  0  0
   46.6488   51.8859   35.0662 C   0  0  0  0  0  0  0  0  0  0  0  0
   47.1868   51.0918   35.9426 N   0  0  0  0  0  0  0  0  0  0  0  0
   46.2156   50.6404   36.7956 N   0  0  0  0  0  0  0  0  0  0  0  0
   47.3796   52.5828   33.9310 C   0  0  0  0  0  0  0  0  0  0  0  0
   48.7466   52.3308   33.9750 F   0  0  0  0  0  0  0  0  0  0  0  0
   46.9190   52.1432   32.6946 F   0  0  0  0  0  0  0  0  0  0  0  0
   47.2150   53.9631   33.9735 F   0  0  0  0  0  0  0  0  0  0  0  0
   35.3782   46.7713   35.8556 Cl  0  0  0  0  0  0  0  0  0  0  0  0
   32.8767   48.6847   36.0902 Cl  0  0  0  0  0  0  0  0  0  0  0  0
   37.6514   48.3978   36.1619 H   0  0  0  0  0  0  0  0  0  0  0  0
   36.0722   52.1475   36.7757 H   0  0  0  0  0  0  0  0  0  0  0  0
   33.8798   51.2577   36.5870 H   0  0  0  0  0  0  0  0  0  0  0  0
   38.3827   52.0196   37.0605 H   0  0  0  0  0  0  0  0  0  0  0  0
   39.1167   50.2258   37.2214 H   0  0  0  0  0  0  0  0  0  0  0  0
   39.2379   50.0184   34.6552 H   0  0  0  0  0  0  0  0  0  0  0  0
   37.4172   51.5937   34.1434 H   0  0  0  0  0  0  0  0  0  0  0  0
   38.5998   52.0610   33.4274 H   0  0  0  0  0  0  0  0  0  0  0  0
   38.1208   52.7876   34.6072 H   0  0  0  0  0  0  0  0  0  0  0  0
   40.2990   52.8321   35.8222 H   0  0  0  0  0  0  0  0  0  0  0  0
   40.8852   51.9488   34.1541 H   0  0  0  0  0  0  0  0  0  0  0  0
   42.2151   53.4781   34.9810 H   0  0  0  0  0  0  0  0  0  0  0  0
   43.4099   53.6291   36.4909 H   0  0  0  0  0  0  0  0  0  0  0  0
   43.9323   52.1117   33.6809 H   0  0  0  0  0  0  0  0  0  0  0  0
   44.6910   53.7978   34.3298 H   0  0  0  0  0  0  0  0  0  0  0  0
   43.5056   49.7868   37.1705 H   0  0  0  0  0  0  0  0  0  0  0  0
   43.7063   51.4716   38.1538 H   0  0  0  0  0  0  0  0  0  0  0  0
  1  2  2  0  0  0  0
  1 27  1  0  0  0  0
  2  3  1  0  0  0  0
  2 26  1  0  0  0  0
  3  4  2  0  0  0  0
  3 28  1  0  0  0  0
  4  5  1  0  0  0  0
  4  7  1  0  0  0  0
  5  6  2  0  0  0  0
  5 29  1  0  0  0  0
  6  1  1  0  0  0  0
  6 30  1  0  0  0  0
  7 31  1  0  0  0  0
  7 32  1  0  0  0  0
  8  7  1  0  0  0  0
  8  9  1  0  0  0  0
  8 10  1  0  0  0  0
  8 33  1  6  0  0  0
  9 34  1  0  0  0  0
  9 35  1  0  0  0  0
  9 36  1  0  0  0  0
 10 11  1  0  0  0  0
 10 37  1  0  0  0  0
 10 38  1  0  0  0  0
 11 12  2  0  0  0  0
 11 13  1  0  0  0  0
 13 14  1  0  0  0  0
 13 16  1  0  0  0  0
 14 15  1  0  0  0  0
 14 39  1  0  0  0  0
 14 40  1  0  0  0  0
 15 18  1  0  0  0  0
 15 41  1  0  0  0  0
 15 42  1  0  0  0  0
 16 43  1  0  0  0  0
 16 44  1  0  0  0  0
 17 16  1  0  0  0  0
 17 18  1  0  0  0  0
 18 19  1  0  0  0  0
 19 20  2  0  0  0  0
 19 22  1  0  0  0  0
 20 21  1  0  0  0  0
 21 17  2  0  0  0  0
 22 23  1  0  0  0  0
 22 24  1  0  0  0  0
 22 25  1  0  0  0  0
M  CHG  1   9   1
M  END
>  <Mean(IC50 fixed2)>
1580

>  <First(BindingDB Ligand Name)>
CHEMBL388433

>  <Concatenate(Target Name Assigned by Curator or DataSource)>
Dipeptidyl Peptidase IV (DPP-IV)

>  <First(Target Source Organism According to Curator or DataSource)>
Homo sapiens

>  <First(Curation/DataSource)>
ChEMBL

>  <First(Article DOI)>
10.1016/j.bmcl.2007.03.098

>  <Mean(PMID)>
17434732

>  <First(Authors)>
Kim, D; Kowalchick, JE; Edmondson, SD; Mastracchio, A; Xu, J; Eiermann, GJ; Leiting, B; Wu, JK; Pryor, KD; Patel, RA; He, H; Lyons, KA; Thornberry, NA; Weber, AE

>  <First(Institution)>
Merck Research Laboratories<span class=m1fontSize>Curated by</span> <a href=http://www.ebi.ac.uk/chembl/>ChEMBL</a>

>  <First(Link to Ligand in BindingDB)>
http://www.bindingdb.org/bind/chemsearch/marvin/MolStructure.jsp?monomerid=50210656

>  <First(Link to Ligand-Target Pair in BindingDB)>
http://www.bindingdb.org/jsp/dbsearch/PrimarySearch_ki.jsp?energyterm=kJ/mole&tag=r21&monomerid=50210656&enzyme=Dipeptidyl+Peptidase+IV+%28DPP-IV%29&column=ki&startPg=0&Increment=50&submit=Search

>  <Mean(PubChem CID)>
44431203

>  <Mean(PubChem SID)>
104087143

>  <First(ZINC ID of Ligand)>
ZINC28820808

>  <Concatenate*(UniProt (SwissProt) Entry Name of Target Chain)>
DPP4_HUMAN

>  <Mean(Number of Protein Chains in Target (>1 implies a multichain complex))>
1

>  <Median(pIC50)>
5.80134291304558

>  <Journal>
BiorgMedChemLett2007

>  <Activity Classes>
5.80134291304558

>  <Conformer_cresset>
1

>  <Similarity_cresset>
0.854

>  <Favorite_cresset>
false

>  <Activity (Median(pIC50))_cresset>
5.8

>  <LE (Median(pIC50))_cresset>
0.301

>  <LipE (Median(pIC50))_cresset>
2.8

>  <Tags_cresset>
training

>  <Confs_cresset>
2

>  <Conf#_cresset>
1

>  <Alns_cresset>
2

>  <MW_cresset>
423.2

>  <#Atoms_cresset>
27

>  <SlogP_cresset>
3

>  <TPSA_cresset>
78.7

>  <Flexibility_cresset>
4.9

>  <#RB_cresset>
6

>  <Rof5_cresset>
0

>  <Filename_cresset>
bindingdb_similar_1x70_processed.sdf

>  <Notes_cresset>
36

>  <Selected Alignment_cresset>
true

>  <Alignment Cluster Centre_cresset>
true

>  <_cresset_fieldpoints>
-5      35.822224      48.868694      39.259518     -2.4980
-5      32.843006      46.042309      35.890347     -2.5941
-5      40.506077      48.228939      36.583973     -7.6671
-5      47.876686      49.855255      37.163399    -12.2907
-6      42.055412      53.535137      32.795971     11.7020
-6      40.721512      54.204784      33.562344     11.2763
-7      37.008850      49.413826      33.036667     -2.4389
-7      37.450047      54.269375      36.474133     -1.9766
-7      40.971226      52.494373      38.437248     -2.6016
-7      36.233700      49.721954      33.074268     -2.4137
-7      35.619946      53.363255      34.230244     -1.7932
-7      43.116627      49.667591      34.013695     -2.6975
-7      41.945419      53.417042      32.366081     -1.6870
-7      39.977245      54.418133      33.613724     -1.8573
-7      44.563698      54.205753      31.755308     -1.5804
-7      40.213367      50.342869      32.178680     -1.5193
-7      47.325287      48.725971      35.501949     -1.4950
-7      45.840290      54.467812      37.003490     -2.3055
-7      49.101868      54.211861      31.207703     -1.1103
-7      48.009121      51.951275      38.039303     -1.4894
-7      40.059391      47.935329      36.020229     -2.5000
-7      35.823387      49.245945      39.548309     -1.8986
-7      33.949478      47.821163      33.284946     -1.7474
-7      33.717464      46.881660      38.478634     -1.7301
-8      35.770012      49.829128      36.372562      7.2053
-8      34.280048      49.196762      36.227577      5.6439
-8      34.480759      48.176346      36.061214      5.5915
-8      35.523457      48.243317      36.101814      5.6417
-8      39.542274      51.348598      36.002434      4.9376
-8      43.500614      53.308239      34.808521      3.7887
-8      47.397881      52.628750      33.862091      5.6558
-8      44.232063      50.799477      37.392658      2.7912
-8      43.744202      52.045380      36.216473      2.6712

$$$$
