bindingdb_similar_1x70_processed:7
 OpenBabel04261912203D

 47 49  0  0  1  0  0  0  0  0999 V2000
   35.5236   48.5096   36.1404 C   0  0  0  0  0  0  0  0  0  0  0  0
   34.4321   49.3095   36.4170 C   0  0  0  0  0  0  0  0  0  0  0  0
   34.6195   50.6369   36.7319 C   0  0  0  0  0  0  0  0  0  0  0  0
   35.8904   51.1664   36.7649 C   0  0  0  0  0  0  0  0  0  0  0  0
   36.9814   50.3720   36.4863 C   0  0  0  0  0  0  0  0  0  0  0  0
   36.7925   49.0426   36.1789 C   0  0  0  0  0  0  0  0  0  0  0  0
   35.3550   47.2161   35.8308 F   0  0  0  0  0  0  0  0  0  0  0  0
   33.1916   48.8002   36.3792 F   0  0  0  0  0  0  0  0  0  0  0  0
   38.3903   50.9507   36.5009 C   0  0  0  0  0  0  0  0  0  0  0  0
   39.0589   51.0698   35.1116 C   0  0  2  0  0  0  0  0  0  0  0  0
   40.4406   51.7499   35.2059 C   0  0  0  0  0  0  0  0  0  0  0  0
   41.4736   50.9862   36.0118 C   0  0  0  0  0  0  0  0  0  0  0  0
   38.1996   51.9015   34.2008 N   0  3  0  0  0  0  0  0  0  0  0  0
   41.2236   49.8874   36.4888 O   0  0  0  0  0  0  0  0  0  0  0  0
   43.6770   51.0200   37.0464 C   0  0  0  0  0  0  0  0  0  0  0  0
   43.0194   52.8921   35.4824 C   0  0  0  0  0  0  0  0  0  0  0  0
   44.2328   52.6629   34.5538 C   0  0  0  0  0  0  0  0  0  0  0  0
   42.6581   51.6195   36.1597 N   0  0  0  0  0  0  0  0  0  0  0  0
   45.0396   51.1908   36.4098 C   0  0  0  0  0  0  0  0  0  0  0  0
   46.5993   51.8489   35.0056 C   0  0  0  0  0  0  0  0  0  0  0  0
   45.2706   51.9333   35.2957 N   0  0  0  0  0  0  0  0  0  0  0  0
   46.1719   50.6907   36.7940 N   0  0  0  0  0  0  0  0  0  0  0  0
   47.1424   51.1015   35.9183 N   0  0  0  0  0  0  0  0  0  0  0  0
   47.3192   52.4987   33.8401 C   0  0  0  0  0  0  0  0  0  0  0  0
   47.7794   53.9413   34.1291 C   0  0  0  0  0  0  0  0  0  0  0  0
   33.8313   51.2181   36.9343 H   0  0  0  0  0  0  0  0  0  0  0  0
   36.0216   52.1319   36.9901 H   0  0  0  0  0  0  0  0  0  0  0  0
   37.5820   48.4633   35.9773 H   0  0  0  0  0  0  0  0  0  0  0  0
   38.3783   52.0385   37.0109 H   0  0  0  0  0  0  0  0  0  0  0  0
   39.0599   50.2272   37.1848 H   0  0  0  0  0  0  0  0  0  0  0  0
   39.1862   49.9766   34.6334 H   0  0  0  0  0  0  0  0  0  0  0  0
   40.2580   52.8272   35.7030 H   0  0  0  0  0  0  0  0  0  0  0  0
   40.8477   51.8602   34.0819 H   0  0  0  0  0  0  0  0  0  0  0  0
   37.3781   51.5300   34.0952 H   0  0  0  0  0  0  0  0  0  0  0  0
   38.5625   51.9838   33.3719 H   0  0  0  0  0  0  0  0  0  0  0  0
   38.0773   52.7390   34.5325 H   0  0  0  0  0  0  0  0  0  0  0  0
   43.4621   49.8488   37.1954 H   0  0  0  0  0  0  0  0  0  0  0  0
   43.6549   51.5658   38.1150 H   0  0  0  0  0  0  0  0  0  0  0  0
   42.1716   53.4304   34.8307 H   0  0  0  0  0  0  0  0  0  0  0  0
   43.3588   53.6657   36.3345 H   0  0  0  0  0  0  0  0  0  0  0  0
   43.8923   52.0091   33.6068 H   0  0  0  0  0  0  0  0  0  0  0  0
   44.6625   53.7187   34.1795 H   0  0  0  0  0  0  0  0  0  0  0  0
   46.5734   52.4953   32.8993 H   0  0  0  0  0  0  0  0  0  0  0  0
   48.2696   51.8212   33.5582 H   0  0  0  0  0  0  0  0  0  0  0  0
   48.9782   54.0045   34.1167 H   0  0  0  0  0  0  0  0  0  0  0  0
   47.3867   54.3033   35.2040 H   0  0  0  0  0  0  0  0  0  0  0  0
   47.3481   54.6868   33.2928 H   0  0  0  0  0  0  0  0  0  0  0  0
  1  2  2  0  0  0  0
  1  6  1  0  0  0  0
  1  7  1  0  0  0  0
  2  3  1  0  0  0  0
  2  8  1  0  0  0  0
  3  4  2  0  0  0  0
  3 26  1  0  0  0  0
  4  5  1  0  0  0  0
  4 27  1  0  0  0  0
  5  6  2  0  0  0  0
  5  9  1  0  0  0  0
  6 28  1  0  0  0  0
  9 29  1  0  0  0  0
  9 30  1  0  0  0  0
 10  9  1  0  0  0  0
 10 11  1  0  0  0  0
 10 13  1  0  0  0  0
 10 31  1  6  0  0  0
 11 12  1  0  0  0  0
 11 32  1  0  0  0  0
 11 33  1  0  0  0  0
 12 14  2  0  0  0  0
 12 18  1  0  0  0  0
 13 34  1  0  0  0  0
 13 35  1  0  0  0  0
 13 36  1  0  0  0  0
 15 18  1  0  0  0  0
 15 19  1  0  0  0  0
 15 37  1  0  0  0  0
 15 38  1  0  0  0  0
 16 17  1  0  0  0  0
 16 39  1  0  0  0  0
 16 40  1  0  0  0  0
 17 21  1  0  0  0  0
 17 41  1  0  0  0  0
 17 42  1  0  0  0  0
 18 16  1  0  0  0  0
 20 23  2  0  0  0  0
 20 24  1  0  0  0  0
 21 19  1  0  0  0  0
 21 20  1  0  0  0  0
 22 19  2  0  0  0  0
 22 23  1  0  0  0  0
 24 25  1  0  0  0  0
 24 43  1  0  0  0  0
 24 44  1  0  0  0  0
 25 45  1  0  0  0  0
 25 46  1  0  0  0  0
 25 47  1  0  0  0  0
M  CHG  1  13   1
M  END
>  <Mean(IC50 fixed2)>
231

>  <First(BindingDB Ligand Name)>
Triazolopiperazine Analogue 23

>  <Concatenate(Target Name Assigned by Curator or DataSource)>
Dipeptidyl Peptidase IV (DPP-IV)

>  <First(Target Source Organism According to Curator or DataSource)>
Homo sapiens (human)

>  <First(Curation/DataSource)>
Curated from the literature by BindingDB

>  <First(Article DOI)>
10.1021/jm0493156

>  <Mean(PMID)>
15634008

>  <First(Authors)>
Kim, D; Wang, L; Beconi, M; Eiermann, GJ; Fisher, MH; He, H; Hickey, GJ; Kowalchick, JE; Leiting, B; Lyons, K; Marsilio, F; McCann, ME; Patel, RA; Petrov, A; Scapin, G; Patel, SB; Roy, RS; Wu, JK; Wyvratt, MJ; Zhang, BB; Zhu, L; Thornberry, NA; Weber, AE

>  <First(Institution)>
Merck Research Laboratories

>  <First(Link to Ligand in BindingDB)>
http://www.bindingdb.org/bind/chemsearch/marvin/MolStructure.jsp?monomerid=11158

>  <First(Link to Ligand-Target Pair in BindingDB)>
http://www.bindingdb.org/jsp/dbsearch/PrimarySearch_ki.jsp?energyterm=kJ/mole&tag=r21&monomerid=11158&enzyme=Dipeptidyl+Peptidase+IV+%28DPP-IV%29&column=ki&startPg=0&Increment=50&submit=Search

>  <Mean(PubChem CID)>
23645410

>  <Mean(PubChem SID)>
46511712

>  <First(ZINC ID of Ligand)>
ZINC01489476

>  <Concatenate*(UniProt (SwissProt) Entry Name of Target Chain)>
DPP4_HUMAN

>  <Mean(Number of Protein Chains in Target (>1 implies a multichain complex))>
1

>  <Median(pIC50)>
6.63638802010786

>  <Journal>
JMedChem2005

>  <Activity Classes>
6.63638802010786

>  <Conformer_cresset>
1

>  <Similarity_cresset>
0.836

>  <Favorite_cresset>
false

>  <Activity (Median(pIC50))_cresset>
6.64

>  <LE (Median(pIC50))_cresset>
0.372

>  <LipE (Median(pIC50))_cresset>
4.7

>  <Tags_cresset>
training

>  <Confs_cresset>
5

>  <Conf#_cresset>
1

>  <Alns_cresset>
5

>  <MW_cresset>
350.4

>  <#Atoms_cresset>
25

>  <SlogP_cresset>
2

>  <TPSA_cresset>
78.7

>  <Flexibility_cresset>
5.9

>  <#RB_cresset>
6

>  <Rof5_cresset>
0

>  <Filename_cresset>
bindingdb_similar_1x70_processed.sdf

>  <Notes_cresset>
23

>  <Selected Alignment_cresset>
true

>  <Alignment Cluster Centre_cresset>
true

>  <_cresset_fieldpoints>
-5      47.841782      49.956791      37.179489    -13.9421
-5      32.778835      46.005604      35.887836     -3.2792
-5      40.572128      48.236725      36.811001     -7.7970
-5      36.642307      48.776512      39.303379     -1.6600
-5      37.479897      45.199043      36.193817     -1.3848
-6      42.003819      53.397823      32.640953     11.6843
-7      35.980713      48.964298      39.529427     -2.0345
-7      35.404743      50.255409      33.252617     -2.4659
-7      35.493160      53.164932      34.241360     -1.8608
-7      37.066803      49.324207      32.975574     -2.3950
-7      40.002537      47.949421      36.093628     -2.5417
-7      40.923145      52.612717      38.336926     -2.5951
-7      39.936028      54.326862      33.449615     -1.8609
-7      40.120636      50.219204      32.144699     -1.5131
-7      41.876820      53.260784      32.230217     -1.6514
-7      37.331131      54.236450      36.363411     -1.9880
-7      43.054825      49.575783      34.059460     -2.6427
-7      45.164215      54.301399      31.733744     -1.6537
-7      47.267693      48.675274      35.942314     -1.3398
-7      46.248573      50.366295      39.327309     -1.0374
-7      48.243492      53.488590      30.863100     -1.1002
-7      45.691109      54.394306      37.105824     -2.3352
-8      35.704533      49.830460      36.448555      7.2394
-8      39.499168      51.338348      35.953175      4.9248
-8      43.456505      53.265144      34.676765      3.7825
-8      44.185726      50.877422      37.381378      2.7911
-8      47.299240      52.998283      34.183727      4.6338

$$$$
