bindingdb_similar_1x70_processed:73
 OpenBabel04261912203D

 60 63  0  0  1  0  0  0  0  0999 V2000
   34.4448   49.2623   36.3125 C   0  0  0  0  0  0  0  0  0  0  0  0
   34.6246   50.5800   36.6658 C   0  0  0  0  0  0  0  0  0  0  0  0
   35.8932   51.1158   36.7239 C   0  0  0  0  0  0  0  0  0  0  0  0
   36.9922   50.3329   36.4291 C   0  0  0  0  0  0  0  0  0  0  0  0
   36.8079   49.0123   36.0812 C   0  0  0  0  0  0  0  0  0  0  0  0
   35.5409   48.4750   36.0193 C   0  0  0  0  0  0  0  0  0  0  0  0
   35.3779   47.1904   35.6712 F   0  0  0  0  0  0  0  0  0  0  0  0
   33.2065   48.7511   36.2530 F   0  0  0  0  0  0  0  0  0  0  0  0
   36.0431   52.4040   37.0659 F   0  0  0  0  0  0  0  0  0  0  0  0
   38.4035   50.9047   36.4672 C   0  0  0  0  0  0  0  0  0  0  0  0
   39.0729   51.0755   35.0840 C   0  0  2  0  0  0  0  0  0  0  0  0
   40.4535   51.7536   35.2034 C   0  0  0  0  0  0  0  0  0  0  0  0
   38.2140   51.9293   34.1899 N   0  3  0  0  0  0  0  0  0  0  0  0
   41.4850   50.9716   35.9928 C   0  0  0  0  0  0  0  0  0  0  0  0
   42.6682   51.6038   36.1611 N   0  0  0  0  0  0  0  0  0  0  0  0
   43.0237   52.8966   35.5172 C   0  0  0  0  0  0  0  0  0  0  0  0
   44.2480   52.6956   34.5988 C   0  0  0  0  0  0  0  0  0  0  0  0
   43.6782   50.9767   37.0432 C   0  0  1  0  0  0  0  0  0  0  0  0
   46.1772   50.6636   36.7937 N   0  0  0  0  0  0  0  0  0  0  0  0
   45.0460   51.1737   36.4186 C   0  0  0  0  0  0  0  0  0  0  0  0
   45.2838   51.9494   35.3285 N   0  0  0  0  0  0  0  0  0  0  0  0
   46.6163   51.8779   35.0447 C   0  0  0  0  0  0  0  0  0  0  0  0
   47.1527   51.1023   35.9381 N   0  0  0  0  0  0  0  0  0  0  0  0
   47.3458   52.5566   33.8979 C   0  0  0  0  0  0  0  0  0  0  0  0
   48.7142   52.3154   33.9490 F   0  0  0  0  0  0  0  0  0  0  0  0
   47.1696   53.9360   33.9150 F   0  0  0  0  0  0  0  0  0  0  0  0
   46.8889   52.0910   32.6694 F   0  0  0  0  0  0  0  0  0  0  0  0
   41.2377   49.8592   36.4398 O   0  0  0  0  0  0  0  0  0  0  0  0
   43.6076   51.5040   38.4942 C   0  0  0  0  0  0  0  0  0  0  0  0
   42.3231   51.1651   39.2482 C   0  0  0  0  0  0  0  0  0  0  0  0
   41.2380   51.9975   39.0678 C   0  0  0  0  0  0  0  0  0  0  0  0
   40.0480   51.7566   39.7136 C   0  0  0  0  0  0  0  0  0  0  0  0
   39.9360   50.6772   40.5562 C   0  0  0  0  0  0  0  0  0  0  0  0
   41.0106   49.8387   40.7352 C   0  0  0  0  0  0  0  0  0  0  0  0
   42.2039   50.0671   40.0828 C   0  0  0  0  0  0  0  0  0  0  0  0
   43.3432   49.0858   40.3291 C   0  0  0  0  0  0  0  0  0  0  0  0
   42.9159   47.9246   40.9658 F   0  0  0  0  0  0  0  0  0  0  0  0
   44.3257   49.6562   41.1296 F   0  0  0  0  0  0  0  0  0  0  0  0
   43.9489   48.6822   39.1431 F   0  0  0  0  0  0  0  0  0  0  0  0
   33.8322   51.1516   36.8788 H   0  0  0  0  0  0  0  0  0  0  0  0
   37.5996   48.4406   35.8661 H   0  0  0  0  0  0  0  0  0  0  0  0
   38.4097   51.9707   37.0178 H   0  0  0  0  0  0  0  0  0  0  0  0
   39.0708   50.1601   37.1287 H   0  0  0  0  0  0  0  0  0  0  0  0
   39.2089   49.9955   34.5791 H   0  0  0  0  0  0  0  0  0  0  0  0
   40.2718   52.8188   35.7245 H   0  0  0  0  0  0  0  0  0  0  0  0
   40.8662   51.8875   34.0844 H   0  0  0  0  0  0  0  0  0  0  0  0
   37.3916   51.5601   34.0627 H   0  0  0  0  0  0  0  0  0  0  0  0
   38.5808   52.0422   33.3635 H   0  0  0  0  0  0  0  0  0  0  0  0
   38.0830   52.7583   34.5442 H   0  0  0  0  0  0  0  0  0  0  0  0
   42.1795   53.4432   34.8681 H   0  0  0  0  0  0  0  0  0  0  0  0
   43.3477   53.6627   36.3811 H   0  0  0  0  0  0  0  0  0  0  0  0
   43.9169   52.0653   33.6330 H   0  0  0  0  0  0  0  0  0  0  0  0
   44.6620   53.7681   34.2562 H   0  0  0  0  0  0  0  0  0  0  0  0
   43.4742   49.7950   37.0525 H   0  0  0  0  0  0  0  0  0  0  0  0
   44.5527   51.0710   39.0914 H   0  0  0  0  0  0  0  0  0  0  0  0
   43.7438   52.6959   38.4761 H   0  0  0  0  0  0  0  0  0  0  0  0
   41.3158   52.7839   38.4543 H   0  0  0  0  0  0  0  0  0  0  0  0
   39.2672   52.3647   39.5706 H   0  0  0  0  0  0  0  0  0  0  0  0
   39.0773   50.5020   41.0370 H   0  0  0  0  0  0  0  0  0  0  0  0
   40.9225   49.0525   41.3455 H   0  0  0  0  0  0  0  0  0  0  0  0
  1  2  2  0  0  0  0
  1  8  1  0  0  0  0
  2  3  1  0  0  0  0
  2 40  1  0  0  0  0
  3  4  2  0  0  0  0
  3  9  1  0  0  0  0
  4  5  1  0  0  0  0
  4 10  1  0  0  0  0
  5  6  2  0  0  0  0
  5 41  1  0  0  0  0
  6  1  1  0  0  0  0
  6  7  1  0  0  0  0
 10 42  1  0  0  0  0
 10 43  1  0  0  0  0
 11 10  1  0  0  0  0
 11 12  1  0  0  0  0
 11 13  1  0  0  0  0
 11 44  1  6  0  0  0
 12 14  1  0  0  0  0
 12 45  1  0  0  0  0
 12 46  1  0  0  0  0
 13 47  1  0  0  0  0
 13 48  1  0  0  0  0
 13 49  1  0  0  0  0
 14 15  1  0  0  0  0
 14 28  2  0  0  0  0
 15 16  1  0  0  0  0
 15 18  1  0  0  0  0
 16 17  1  0  0  0  0
 16 50  1  0  0  0  0
 16 51  1  0  0  0  0
 17 21  1  0  0  0  0
 17 52  1  0  0  0  0
 17 53  1  0  0  0  0
 18 29  1  0  0  0  0
 18 54  1  1  0  0  0
 19 20  2  0  0  0  0
 20 18  1  0  0  0  0
 20 21  1  0  0  0  0
 21 22  1  0  0  0  0
 22 23  2  0  0  0  0
 22 24  1  0  0  0  0
 23 19  1  0  0  0  0
 24 25  1  0  0  0  0
 24 26  1  0  0  0  0
 24 27  1  0  0  0  0
 29 30  1  0  0  0  0
 29 55  1  0  0  0  0
 29 56  1  0  0  0  0
 30 31  2  0  0  0  0
 31 32  1  0  0  0  0
 31 57  1  0  0  0  0
 32 33  2  0  0  0  0
 32 58  1  0  0  0  0
 33 34  1  0  0  0  0
 33 59  1  0  0  0  0
 34 35  2  0  0  0  0
 34 60  1  0  0  0  0
 35 30  1  0  0  0  0
 35 36  1  0  0  0  0
 36 37  1  0  0  0  0
 36 38  1  0  0  0  0
 36 39  1  0  0  0  0
M  CHG  1  13   1
M  END
>  <Mean(IC50 fixed2)>
219.155

>  <First(BindingDB Ligand Name)>
CHEMBL536090

>  <Concatenate(Target Name Assigned by Curator or DataSource)>
Dipeptidyl Peptidase IV (DPP-IV), Dipeptidyl Peptidase IV (DPP-IV)

>  <First(Target Source Organism According to Curator or DataSource)>
Homo sapiens

>  <First(Curation/DataSource)>
ChEMBL

>  <First(Article DOI)>
10.1021/jm070330v

>  <Mean(PMID)>
18201067

>  <First(Authors)>
Kim, D; Kowalchick, JE; Brockunier, LL; Parmee, ER; Eiermann, GJ; Fisher, MH; He, H; Leiting, B; Lyons, K; Scapin, G; Patel, SB; Petrov, A; Pryor, KD; Roy, RS; Wu, JK; Zhang, X; Wyvratt, MJ; Zhang, BB; Zhu, L; Thornberry, NA; Weber, AE

>  <First(Institution)>
Merck Research Laboratories<span class=m1fontSize>Curated by</span> <a href=http://www.ebi.ac.uk/chembl/>ChEMBL</a>

>  <First(Link to Ligand in BindingDB)>
http://www.bindingdb.org/bind/chemsearch/marvin/MolStructure.jsp?monomerid=50232520

>  <First(Link to Ligand-Target Pair in BindingDB)>
http://www.bindingdb.org/jsp/dbsearch/PrimarySearch_ki.jsp?energyterm=kJ/mole&tag=r21&monomerid=50232520&enzyme=Dipeptidyl+Peptidase+IV+%28DPP-IV%29&column=ki&startPg=0&Increment=50&submit=Search

>  <Mean(PubChem CID)>
44445056

>  <Mean(PubChem SID)>
104055532

>  <First(ZINC ID of Ligand)>
ZINC36311008

>  <Concatenate*(UniProt (SwissProt) Entry Name of Target Chain)>
DPP4_HUMAN, DPP4_HUMAN

>  <Mean(Number of Protein Chains in Target (>1 implies a multichain complex))>
1

>  <Median(pIC50)>
9.509

>  <Journal>
JMedChem2008

>  <Activity Classes>
9.509

>  <Conformer_cresset>
1

>  <Similarity_cresset>
0.939

>  <Favorite_cresset>
false

>  <Activity (Median(pIC50))_cresset>
9.51

>  <LE (Median(pIC50))_cresset>
0.341

>  <LipE (Median(pIC50))_cresset>
3.9

>  <Tags_cresset>
training

>  <Confs_cresset>
3

>  <Conf#_cresset>
1

>  <Alns_cresset>
3

>  <MW_cresset>
566.4

>  <#Atoms_cresset>
39

>  <SlogP_cresset>
5.6

>  <TPSA_cresset>
78.7

>  <Flexibility_cresset>
6.9

>  <#RB_cresset>
9

>  <Rof5_cresset>
2

>  <Filename_cresset>
bindingdb_similar_1x70_processed.sdf

>  <Notes_cresset>
44b

>  <Selected Alignment_cresset>
true

>  <Alignment Cluster Centre_cresset>
true

>  <_cresset_fieldpoints>
-5      32.797253      45.954151      35.650105     -2.5592
-5      47.803715      49.862522      37.206367    -12.5190
-5      42.352501      52.209000      42.340111     -2.3210
-5      41.100533      48.477837      37.598690    -10.1883
-6      35.635040      50.633575      33.283981      5.6939
-6      41.122929      54.629166      36.762810     11.1521
-6      42.033329      53.436325      32.689796     12.0046
-6      40.943378      54.995571      35.823212     11.0722
-6      37.133011      52.671200      39.908619      5.1278
-7      37.090420      49.384743      32.892952     -2.4184
-7      37.022503      49.504581      39.542709     -2.8817
-7      39.213158      54.241325      37.499802     -2.6725
-7      35.361504      50.398922      33.227966     -2.5466
-7      43.130566      49.603230      34.064358     -2.8507
-7      39.942501      54.388523      33.546089     -1.8962
-7      40.146065      50.304726      32.100227     -1.5222
-7      40.932724      54.740154      37.180473     -2.4088
-7      41.937405      53.291512      32.255016     -1.6965
-7      44.530941      54.124954      31.671425     -1.5842
-7      45.708843      54.284145      37.209785     -2.7143
-7      42.428379      54.964752      38.315666     -2.0477
-7      47.184727      48.667034      35.884689     -1.5975
-7      49.059032      54.147800      31.147585     -1.1109
-7      46.912498      50.128723      38.975636     -2.3085
-7      42.750679      52.513111      42.268433     -2.2828
-7      40.536720      48.260849      37.859497     -3.8537
-7      46.111553      46.842457      40.881435     -1.1540
-8      35.714088      49.794872      36.370918      7.2684
-8      41.136051      50.912159      39.898151      7.2387
-8      39.516487      51.324299      35.950554      4.9937
-8      43.252415      50.054203      39.647709      6.2358
-8      43.470417      53.292938      34.738876      3.8134
-8      47.367104      52.603050      33.828953      5.6589
-8      37.018627      51.178970      36.648876      5.6327
-8      43.187271      49.245766      40.279522      6.3059

$$$$
