@<TRIPOS>MOLECULE
bindingdb_similar_1x70_processed:50
 47 49 0 0 0
SMALL
GASTEIGER

@<TRIPOS>ATOM
      1 C          35.4831   48.4890   36.0665 C.ar    1  LIG1        0.1588
      2 C          34.3847   49.2769   36.3497 C.ar    1  LIG1        0.1611
      3 C          34.5623   50.5924   36.7122 C.ar    1  LIG1        0.0119
      4 C          35.8310   51.1259   36.7874 C.ar    1  LIG1        0.1296
      5 C          36.9325   50.3425   36.5023 C.ar    1  LIG1       -0.0040
      6 C          36.7499   49.0234   36.1467 C.ar    1  LIG1       -0.0175
      7 C          38.3446   50.9129   36.5620 C.3     1  LIG1        0.0187
      8 C          39.0350   51.0856   35.1898 C.3     1  LIG1       -0.0118
      9 C          40.4138   51.7637   35.3292 C.3     1  LIG1        0.0673
     10 C          41.4306   50.9737   36.1291 C.2     1  LIG1        0.2214
     11 N          38.1899   51.9453   34.2931 N.4     1  LIG1        0.2213
     12 O          41.1742   49.8595   36.5647 O.2     1  LIG1       -0.2754
     13 C          43.6142   50.9729   37.2052 C.3     1  LIG1        0.0746
     14 C          42.9807   52.8975   35.6920 C.3     1  LIG1        0.0332
     15 C          44.2101   52.6993   34.7787 C.3     1  LIG1        0.0421
     16 N          42.6111   51.6022   36.3203 N.am    1  LIG1       -0.2923
     17 C          44.9879   51.1686   36.5992 C.ar    1  LIG1        0.1511
     18 C          46.5737   51.8788   35.2447 C.ar    1  LIG1        0.2121
     19 N          45.2380   51.9493   35.5146 N.ar    1  LIG1       -0.3070
     20 N          46.1136   50.6569   36.9865 N.ar    1  LIG1       -0.1325
     21 N          47.0973   51.0984   36.1424 N.ar    1  LIG1       -0.1278
     22 F          35.3221   47.2062   35.7104 F       1  LIG1       -0.2025
     23 F          35.9795   52.4118   37.1382 F       1  LIG1       -0.2051
     24 F          33.1463   48.7685   36.2723 F       1  LIG1       -0.2024
     25 C          47.3322   52.5582   34.1112 C.3     1  LIG1        0.3994
     26 C          48.8424   52.2925   34.1767 C.3     1  LIG1        0.4618
     27 F          47.1387   53.9369   34.1310 F       1  LIG1       -0.1869
     28 F          46.8723   52.1024   32.8785 F       1  LIG1       -0.1869
     29 F          49.4906   52.9659   33.1509 F       1  LIG1       -0.1646
     30 F          49.1084   50.9353   34.0438 F       1  LIG1       -0.1646
     31 F          49.3690   52.7292   35.3862 F       1  LIG1       -0.1646
     32 H          33.7683   51.1639   36.9196 H       1  LIG1        0.0676
     33 H          37.5434   48.4510   35.9404 H       1  LIG1        0.0651
     34 H          38.3441   51.9759   37.1193 H       1  LIG1        0.0369
     35 H          39.0038   50.1617   37.2247 H       1  LIG1        0.0369
     36 H          39.1700   50.0105   34.6749 H       1  LIG1        0.0858
     37 H          40.2253   52.8263   35.8546 H       1  LIG1        0.0414
     38 H          40.8398   51.9089   34.2162 H       1  LIG1        0.0414
     39 H          37.3693   51.5770   34.1597 H       1  LIG1        0.1997
     40 H          38.5662   52.0560   33.4720 H       1  LIG1        0.1997
     41 H          38.0593   52.7729   34.6494 H       1  LIG1        0.1997
     42 H          43.3987   49.7975   37.3110 H       1  LIG1        0.0545
     43 H          43.5718   51.4827   38.2905 H       1  LIG1        0.0545
     44 H          42.1459   53.4566   35.0412 H       1  LIG1        0.0482
     45 H          43.3038   53.6437   36.5740 H       1  LIG1        0.0482
     46 H          43.8893   52.0777   33.8036 H       1  LIG1        0.0508
     47 H          44.6323   53.7723   34.4490 H       1  LIG1        0.0508
@<TRIPOS>BOND
     1     1     2   ar
     2     1     6   ar
     3     1    22    1
     4     2     3   ar
     5     2    24    1
     6     3     4   ar
     7     3    32    1
     8     4     5   ar
     9     4    23    1
    10     5     6   ar
    11     5     7    1
    12     6    33    1
    13     7    34    1
    14     7    35    1
    15     8     7    1
    16     8     9    1
    17     8    11    1
    18     8    36    1
    19     9    10    1
    20     9    37    1
    21     9    38    1
    22    10    12    2
    23    10    16   am
    24    11    39    1
    25    11    40    1
    26    11    41    1
    27    13    16    1
    28    13    17    1
    29    13    42    1
    30    13    43    1
    31    14    15    1
    32    14    44    1
    33    14    45    1
    34    15    19    1
    35    15    46    1
    36    15    47    1
    37    16    14    1
    38    18    21   ar
    39    18    25    1
    40    19    17   ar
    41    19    18   ar
    42    20    17   ar
    43    20    21   ar
    44    25    26    1
    45    25    27    1
    46    25    28    1
    47    26    29    1
    48    26    30    1
    49    26    31    1
