@<TRIPOS>MOLECULE
bindingdb_similar_1x70_processed:72
 61 64 0 0 0
SMALL
GASTEIGER

@<TRIPOS>ATOM
      1 C          34.4450   49.2629   36.3176 C.ar    1  LIG1        0.1611
      2 C          34.6250   50.5811   36.6688 C.ar    1  LIG1        0.0119
      3 C          35.8934   51.1171   36.7261 C.ar    1  LIG1        0.1296
      4 C          36.9926   50.3336   36.4324 C.ar    1  LIG1       -0.0040
      5 C          36.8079   49.0125   36.0864 C.ar    1  LIG1       -0.0175
      6 C          35.5411   48.4753   36.0256 C.ar    1  LIG1        0.1588
      7 F          35.3781   47.1901   35.6795 F       1  LIG1       -0.2025
      8 F          33.2067   48.7514   36.2591 F       1  LIG1       -0.2024
      9 F          36.0431   52.4058   37.0657 F       1  LIG1       -0.2051
     10 C          38.4040   50.9057   36.4692 C.3     1  LIG1        0.0187
     11 C          39.0731   51.0758   35.0854 C.3     1  LIG1       -0.0118
     12 C          40.4559   51.7515   35.2056 C.3     1  LIG1        0.0673
     13 N          38.2137   51.9276   34.1897 N.4     1  LIG1        0.2213
     14 C          41.4870   50.9701   35.9977 C.2     1  LIG1        0.2216
     15 N          42.6703   51.6020   36.1695 N.am    1  LIG1       -0.2892
     16 C          43.0256   52.8940   35.5242 C.3     1  LIG1        0.0335
     17 C          44.2464   52.6930   34.6016 C.3     1  LIG1        0.0422
     18 C          43.6811   50.9764   37.0547 C.3     1  LIG1        0.0898
     19 N          46.1786   50.6649   36.7971 N.ar    1  LIG1       -0.1321
     20 C          45.0461   51.1736   36.4244 C.ar    1  LIG1        0.1547
     21 N          45.2825   51.9481   35.3317 N.ar    1  LIG1       -0.3046
     22 C          46.6145   51.8772   35.0455 C.ar    1  LIG1        0.2377
     23 N          47.1522   51.1028   35.9391 N.ar    1  LIG1       -0.1250
     24 C          47.3441   52.5544   33.8971 C.3     1  LIG1        0.4524
     25 F          47.1690   53.9341   33.9117 F       1  LIG1       -0.1632
     26 F          46.8880   52.0876   32.6688 F       1  LIG1       -0.1632
     27 F          48.7127   52.3133   33.9480 F       1  LIG1       -0.1632
     28 O          41.2378   49.8582   36.4440 O.2     1  LIG1       -0.2754
     29 C          43.6281   51.4858   38.5148 C.3     1  LIG1       -0.0019
     30 C          42.3225   51.2017   39.2457 C.ar    1  LIG1       -0.0450
     31 C          41.2361   52.0345   39.0836 C.ar    1  LIG1       -0.0550
     32 C          40.0407   51.7518   39.7024 C.ar    1  LIG1       -0.0197
     33 C          39.9115   50.6303   40.5064 C.ar    1  LIG1        0.1201
     34 C          41.0150   49.8172   40.6867 C.ar    1  LIG1       -0.0197
     35 C          42.2080   50.1009   40.0661 C.ar    1  LIG1       -0.0550
     36 O          38.7647   50.2931   41.1122 O.3     1  LIG1       -0.4951
     37 C          37.6750   51.2370   41.1304 C.3     1  LIG1        0.0788
     38 H          33.8326   51.1530   36.8808 H       1  LIG1        0.0676
     39 H          37.5997   48.4407   35.8722 H       1  LIG1        0.0651
     40 H          38.4099   51.9718   37.0189 H       1  LIG1        0.0369
     41 H          39.0707   50.1617   37.1332 H       1  LIG1        0.0369
     42 H          39.2094   49.9939   34.5844 H       1  LIG1        0.0858
     43 H          40.2731   52.8177   35.7247 H       1  LIG1        0.0414
     44 H          40.8671   51.8852   34.0859 H       1  LIG1        0.0414
     45 H          37.3874   51.5636   34.0712 H       1  LIG1        0.1997
     46 H          38.5756   52.0304   33.3597 H       1  LIG1        0.1997
     47 H          38.0906   52.7613   34.5369 H       1  LIG1        0.1997
     48 H          42.1814   53.4405   34.8747 H       1  LIG1        0.0482
     49 H          43.3511   53.6585   36.3891 H       1  LIG1        0.0482
     50 H          43.9151   52.0616   33.6362 H       1  LIG1        0.0508
     51 H          44.6603   53.7647   34.2566 H       1  LIG1        0.0508
     52 H          43.4816   49.7933   37.0749 H       1  LIG1        0.0585
     53 H          44.5259   50.9564   39.1116 H       1  LIG1        0.0335
     54 H          43.8292   52.6689   38.5207 H       1  LIG1        0.0335
     55 H          41.3150   52.8442   38.5019 H       1  LIG1        0.0621
     56 H          39.2605   52.3613   39.5668 H       1  LIG1        0.0654
     57 H          40.9439   49.0080   41.2709 H       1  LIG1        0.0654
     58 H          42.9944   49.4983   40.2019 H       1  LIG1        0.0621
     59 H          36.7650   50.7512   41.7446 H       1  LIG1        0.0660
     60 H          37.3022   51.4854   40.0173 H       1  LIG1        0.0660
     61 H          38.0259   52.2453   41.6783 H       1  LIG1        0.0660
@<TRIPOS>BOND
     1     1     2   ar
     2     1     8    1
     3     2     3   ar
     4     2    38    1
     5     3     4   ar
     6     3     9    1
     7     4     5   ar
     8     4    10    1
     9     5     6   ar
    10     5    39    1
    11     6     1   ar
    12     6     7    1
    13    10    40    1
    14    10    41    1
    15    11    10    1
    16    11    12    1
    17    11    13    1
    18    11    42    1
    19    12    14    1
    20    12    43    1
    21    12    44    1
    22    13    45    1
    23    13    46    1
    24    13    47    1
    25    14    15   am
    26    14    28    2
    27    15    16    1
    28    15    18    1
    29    16    17    1
    30    16    48    1
    31    16    49    1
    32    17    21    1
    33    17    50    1
    34    17    51    1
    35    18    29    1
    36    18    52    1
    37    19    20   ar
    38    20    18    1
    39    20    21   ar
    40    21    22   ar
    41    22    23   ar
    42    22    24    1
    43    23    19   ar
    44    24    25    1
    45    24    26    1
    46    24    27    1
    47    29    30    1
    48    29    53    1
    49    29    54    1
    50    30    31   ar
    51    31    32   ar
    52    31    55    1
    53    32    33   ar
    54    32    56    1
    55    33    34   ar
    56    33    36    1
    57    34    35   ar
    58    34    57    1
    59    35    30   ar
    60    35    58    1
    61    36    37    1
    62    37    59    1
    63    37    60    1
    64    37    61    1
