@<TRIPOS>MOLECULE
bindingdb_similar_1x70_processed:45
 51 54 0 0 0
SMALL
GASTEIGER

@<TRIPOS>ATOM
      1 C          34.2135   49.2406   36.3269 C.ar    1  LIG1       -0.0237
      2 C          34.3917   50.5657   36.6464 C.ar    1  LIG1       -0.0235
      3 C          35.6614   51.0986   36.7086 C.ar    1  LIG1        0.1269
      4 C          36.7618   50.3032   36.4517 C.ar    1  LIG1       -0.0042
      5 C          36.5774   48.9750   36.1372 C.ar    1  LIG1       -0.0204
      6 C          35.3073   48.4433   36.0715 C.ar    1  LIG1        0.1238
      7 C          38.1736   50.8730   36.4979 C.3     1  LIG1        0.0187
      8 C          38.8710   51.0010   35.1233 C.3     1  LIG1       -0.0118
      9 N          38.0372   51.8351   34.1890 N.4     1  LIG1        0.2213
     10 C          40.2565   51.6676   35.2595 C.3     1  LIG1        0.0673
     11 C          41.2627   50.8904   36.0865 C.2     1  LIG1        0.2214
     12 O          40.9946   49.7882   36.5471 O.2     1  LIG1       -0.2754
     13 N          42.4479   51.5140   36.2749 N.am    1  LIG1       -0.2923
     14 C          42.8240   52.8130   35.6594 C.3     1  LIG1        0.0332
     15 C          44.0808   52.6291   34.7828 C.3     1  LIG1        0.0422
     16 C          43.4484   50.8850   37.1624 C.3     1  LIG1        0.0746
     17 C          44.8313   51.0651   36.5717 C.ar    1  LIG1        0.1512
     18 N          45.1168   51.9211   35.5544 N.ar    1  LIG1       -0.3081
     19 C          46.4662   51.8440   35.3162 C.ar    1  LIG1        0.1643
     20 N          46.9453   50.9442   36.1355 N.ar    1  LIG1       -0.1291
     21 N          45.9315   50.4775   36.9251 N.ar    1  LIG1       -0.1324
     22 F          35.1362   47.1524   35.7555 F       1  LIG1       -0.2055
     23 C          47.1973   52.6371   34.3517 C.ar    1  LIG1        0.0194
     24 C          48.0741   52.0320   33.4665 C.ar    1  LIG1       -0.0483
     25 C          48.7940   52.7928   32.5767 C.ar    1  LIG1       -0.0258
     26 C          48.6581   54.1663   32.5706 C.ar    1  LIG1        0.1234
     27 C          47.7863   54.7750   33.4479 C.ar    1  LIG1       -0.0258
     28 C          47.0590   54.0154   34.3288 C.ar    1  LIG1       -0.0483
     29 F          49.3770   54.9133   31.7221 F       1  LIG1       -0.2055
     30 F          35.8130   52.3946   37.0186 F       1  LIG1       -0.2052
     31 H          33.2916   48.8566   36.2794 H       1  LIG1        0.0647
     32 H          33.5986   51.1457   36.8325 H       1  LIG1        0.0647
     33 H          37.3697   48.3941   35.9504 H       1  LIG1        0.0650
     34 H          38.8275   50.1440   37.1903 H       1  LIG1        0.0369
     35 H          38.1709   51.9528   37.0218 H       1  LIG1        0.0369
     36 H          39.0049   49.9069   34.6488 H       1  LIG1        0.0858
     37 H          37.2113   51.4743   34.0610 H       1  LIG1        0.1997
     38 H          38.4162   51.9162   33.3653 H       1  LIG1        0.1997
     39 H          37.9131   52.6767   34.5134 H       1  LIG1        0.1997
     40 H          40.0727   52.7468   35.7517 H       1  LIG1        0.0414
     41 H          40.6947   51.7811   34.1482 H       1  LIG1        0.0414
     42 H          42.0029   53.3544   34.9765 H       1  LIG1        0.0482
     43 H          43.1084   53.5640   36.5515 H       1  LIG1        0.0482
     44 H          43.7877   51.9480   33.8381 H       1  LIG1        0.0508
     45 H          44.4505   53.6985   34.3904 H       1  LIG1        0.0508
     46 H          43.2271   49.7126   37.2813 H       1  LIG1        0.0545
     47 H          43.4018   51.4099   38.2411 H       1  LIG1        0.0545
     48 H          48.1834   51.0380   33.4738 H       1  LIG1        0.0625
     49 H          49.4235   52.3514   31.9369 H       1  LIG1        0.0646
     50 H          47.6875   55.7694   33.4464 H       1  LIG1        0.0646
     51 H          46.4361   54.4632   34.9701 H       1  LIG1        0.0625
@<TRIPOS>BOND
     1     1     2   ar
     2     1    31    1
     3     2     3   ar
     4     2    32    1
     5     3     4   ar
     6     3    30    1
     7     4     5   ar
     8     4     7    1
     9     5     6   ar
    10     5    33    1
    11     6     1   ar
    12     6    22    1
    13     7    34    1
    14     7    35    1
    15     8     7    1
    16     8     9    1
    17     8    10    1
    18     8    36    1
    19     9    37    1
    20     9    38    1
    21     9    39    1
    22    10    11    1
    23    10    40    1
    24    10    41    1
    25    11    12    2
    26    11    13   am
    27    13    14    1
    28    13    16    1
    29    14    15    1
    30    14    42    1
    31    14    43    1
    32    15    18    1
    33    15    44    1
    34    15    45    1
    35    16    46    1
    36    16    47    1
    37    17    16    1
    38    17    18   ar
    39    18    19   ar
    40    19    20   ar
    41    19    23    1
    42    20    21   ar
    43    21    17   ar
    44    23    24   ar
    45    24    25   ar
    46    24    48    1
    47    25    26   ar
    48    25    49    1
    49    26    27   ar
    50    26    29    1
    51    27    28   ar
    52    27    50    1
    53    28    23   ar
    54    28    51    1
