bindingdb_similar_1x70_processed:14
 OpenBabel04261912203D

 44 46  0  0  1  0  0  0  0  0999 V2000
   34.4452   49.2632   36.3126 C   0  0  0  0  0  0  0  0  0  0  0  0
   34.6249   50.5815   36.6661 C   0  0  0  0  0  0  0  0  0  0  0  0
   35.8929   51.1167   36.7228 C   0  0  0  0  0  0  0  0  0  0  0  0
   36.9920   50.3329   36.4280 C   0  0  0  0  0  0  0  0  0  0  0  0
   36.8061   49.0121   36.0818 C   0  0  0  0  0  0  0  0  0  0  0  0
   35.5393   48.4771   36.0216 C   0  0  0  0  0  0  0  0  0  0  0  0
   38.4043   50.9060   36.4670 C   0  0  0  0  0  0  0  0  0  0  0  0
   39.0764   51.0730   35.0850 C   0  0  1  0  0  0  0  0  0  0  0  0
   38.2184   51.9280   34.1939 N   0  3  0  0  0  0  0  0  0  0  0  0
   40.4557   51.7538   35.2042 C   0  0  0  0  0  0  0  0  0  0  0  0
   41.4844   50.9698   35.9960 C   0  0  0  0  0  0  0  0  0  0  0  0
   41.2351   49.8573   36.4402 O   0  0  0  0  0  0  0  0  0  0  0  0
   42.6657   51.6012   36.1695 N   0  0  0  0  0  0  0  0  0  0  0  0
   43.0261   52.8935   35.5309 C   0  0  0  0  0  0  0  0  0  0  0  0
   44.2444   52.6930   34.6032 C   0  0  0  0  0  0  0  0  0  0  0  0
   43.6812   50.9792   37.0444 C   0  0  0  0  0  0  0  0  0  0  0  0
   45.0470   51.1723   36.4212 C   0  0  0  0  0  0  0  0  0  0  0  0
   45.2821   51.9478   35.3305 N   0  0  0  0  0  0  0  0  0  0  0  0
   46.6141   51.8781   35.0452 C   0  0  0  0  0  0  0  0  0  0  0  0
   47.1518   51.1033   35.9388 N   0  0  0  0  0  0  0  0  0  0  0  0
   46.1785   50.6647   36.7968 N   0  0  0  0  0  0  0  0  0  0  0  0
   47.3432   52.5561   33.8973 C   0  0  0  0  0  0  0  0  0  0  0  0
   47.1666   53.9355   33.9116 F   0  0  0  0  0  0  0  0  0  0  0  0
   48.7120   52.3168   33.9478 F   0  0  0  0  0  0  0  0  0  0  0  0
   46.8876   52.0888   32.6689 F   0  0  0  0  0  0  0  0  0  0  0  0
   36.0437   52.4045   37.0652 F   0  0  0  0  0  0  0  0  0  0  0  0
   33.2077   48.7514   36.2527 F   0  0  0  0  0  0  0  0  0  0  0  0
   33.8324   51.1525   36.8802 H   0  0  0  0  0  0  0  0  0  0  0  0
   37.5974   48.4390   35.8682 H   0  0  0  0  0  0  0  0  0  0  0  0
   35.4132   47.5188   35.7652 H   0  0  0  0  0  0  0  0  0  0  0  0
   38.4096   51.9725   37.0188 H   0  0  0  0  0  0  0  0  0  0  0  0
   39.0730   50.1583   37.1251 H   0  0  0  0  0  0  0  0  0  0  0  0
   39.2070   49.9951   34.5752 H   0  0  0  0  0  0  0  0  0  0  0  0
   37.3942   51.5633   34.0823 H   0  0  0  0  0  0  0  0  0  0  0  0
   38.5806   52.0243   33.3657 H   0  0  0  0  0  0  0  0  0  0  0  0
   38.1019   52.7597   34.5428 H   0  0  0  0  0  0  0  0  0  0  0  0
   40.2719   52.8194   35.7257 H   0  0  0  0  0  0  0  0  0  0  0  0
   40.8683   51.8923   34.0854 H   0  0  0  0  0  0  0  0  0  0  0  0
   42.1820   53.4480   34.8871 H   0  0  0  0  0  0  0  0  0  0  0  0
   43.3587   53.6447   36.4052 H   0  0  0  0  0  0  0  0  0  0  0  0
   43.9124   52.0658   33.6354 H   0  0  0  0  0  0  0  0  0  0  0  0
   44.6601   53.7648   34.2622 H   0  0  0  0  0  0  0  0  0  0  0  0
   43.4689   49.8033   37.1591 H   0  0  0  0  0  0  0  0  0  0  0  0
   43.6515   51.4939   38.1282 H   0  0  0  0  0  0  0  0  0  0  0  0
  1  2  2  0  0  0  0
  1 27  1  0  0  0  0
  2  3  1  0  0  0  0
  2 28  1  0  0  0  0
  3  4  2  0  0  0  0
  3 26  1  0  0  0  0
  4  5  1  0  0  0  0
  4  7  1  0  0  0  0
  5  6  2  0  0  0  0
  5 29  1  0  0  0  0
  6  1  1  0  0  0  0
  6 30  1  0  0  0  0
  7 31  1  0  0  0  0
  7 32  1  0  0  0  0
  8  7  1  0  0  0  0
  8  9  1  0  0  0  0
  8 10  1  0  0  0  0
  8 33  1  6  0  0  0
  9 34  1  0  0  0  0
  9 35  1  0  0  0  0
  9 36  1  0  0  0  0
 10 11  1  0  0  0  0
 10 37  1  0  0  0  0
 10 38  1  0  0  0  0
 11 12  2  0  0  0  0
 11 13  1  0  0  0  0
 13 14  1  0  0  0  0
 13 16  1  0  0  0  0
 14 15  1  0  0  0  0
 14 39  1  0  0  0  0
 14 40  1  0  0  0  0
 15 18  1  0  0  0  0
 15 41  1  0  0  0  0
 15 42  1  0  0  0  0
 16 43  1  0  0  0  0
 16 44  1  0  0  0  0
 17 16  1  0  0  0  0
 17 18  1  0  0  0  0
 18 19  1  0  0  0  0
 19 20  2  0  0  0  0
 19 22  1  0  0  0  0
 20 21  1  0  0  0  0
 21 17  2  0  0  0  0
 22 23  1  0  0  0  0
 22 24  1  0  0  0  0
 22 25  1  0  0  0  0
M  CHG  1   9   1
M  END
>  <Mean(IC50 fixed2)>
82

>  <First(BindingDB Ligand Name)>
CHEMBL389151

>  <Concatenate(Target Name Assigned by Curator or DataSource)>
Dipeptidyl Peptidase IV (DPP-IV)

>  <First(Target Source Organism According to Curator or DataSource)>
Homo sapiens

>  <First(Curation/DataSource)>
ChEMBL

>  <First(Article DOI)>
10.1016/j.bmcl.2007.03.098

>  <Mean(PMID)>
17434732

>  <First(Authors)>
Kim, D; Kowalchick, JE; Edmondson, SD; Mastracchio, A; Xu, J; Eiermann, GJ; Leiting, B; Wu, JK; Pryor, KD; Patel, RA; He, H; Lyons, KA; Thornberry, NA; Weber, AE

>  <First(Institution)>
Merck Research Laboratories<span class=m1fontSize>Curated by</span> <a href=http://www.ebi.ac.uk/chembl/>ChEMBL</a>

>  <First(Link to Ligand in BindingDB)>
http://www.bindingdb.org/bind/chemsearch/marvin/MolStructure.jsp?monomerid=50210665

>  <First(Link to Ligand-Target Pair in BindingDB)>
http://www.bindingdb.org/jsp/dbsearch/PrimarySearch_ki.jsp?energyterm=kJ/mole&tag=r21&monomerid=50210665&enzyme=Dipeptidyl+Peptidase+IV+%28DPP-IV%29&column=ki&startPg=0&Increment=50&submit=Search

>  <Mean(PubChem CID)>
11957945

>  <Mean(PubChem SID)>
104087152

>  <First(ZINC ID of Ligand)>
ZINC28820698

>  <Concatenate*(UniProt (SwissProt) Entry Name of Target Chain)>
DPP4_HUMAN

>  <Mean(Number of Protein Chains in Target (>1 implies a multichain complex))>
1

>  <Median(pIC50)>
7.08618614761628

>  <Journal>
BiorgMedChemLett2007

>  <Activity Classes>
7.08618614761628

>  <Conformer_cresset>
1

>  <Similarity_cresset>
0.846

>  <Favorite_cresset>
false

>  <Activity (Median(pIC50))_cresset>
7.09

>  <LE (Median(pIC50))_cresset>
0.368

>  <LipE (Median(pIC50))_cresset>
4.7

>  <Tags_cresset>
training

>  <Confs_cresset>
2

>  <Conf#_cresset>
1

>  <Alns_cresset>
2

>  <MW_cresset>
390.3

>  <#Atoms_cresset>
27

>  <SlogP_cresset>
2.4

>  <TPSA_cresset>
78.7

>  <Flexibility_cresset>
4.9

>  <#RB_cresset>
6

>  <Rof5_cresset>
0

>  <Filename_cresset>
bindingdb_similar_1x70_processed.sdf

>  <Notes_cresset>
24

>  <Selected Alignment_cresset>
true

>  <Alignment Cluster Centre_cresset>
true

>  <_cresset_fieldpoints>
-5      47.844662      49.909229      37.199608    -12.2628
-5      40.705654      48.194622      36.895687     -7.1244
-5      36.460983      48.796196      39.232735     -1.4715
-6      32.793644      52.852184      35.671951      2.8645
-6      42.051281      53.415615      32.688221     11.5717
-6      37.283039      46.411251      34.528198      3.8137
-7      40.035717      47.930553      35.965504     -2.4924
-7      37.146839      49.418232      32.867973     -2.2714
-7      40.884449      52.509995      38.365444     -2.6347
-7      41.932690      53.321949      32.274078     -1.6895
-7      39.952179      54.372025      33.509277     -1.8739
-7      38.471352      54.478168      36.367241     -2.0531
-7      44.520866      54.115528      31.676748     -1.5841
-7      40.163940      50.311810      32.099312     -1.5126
-7      43.108578      49.625355      34.011620     -2.7035
-7      47.293709      48.726410      35.533707     -1.4941
-7      49.054169      54.152218      31.143888     -1.1104
-7      47.962669      52.002216      38.023949     -1.4864
-7      45.784851      54.491261      36.930325     -2.3052
-7      35.297497      50.544678      33.255512     -2.4189
-7      36.073631      49.129349      39.499924     -2.0431
-8      35.715416      49.806408      36.371075      7.2379
-8      39.513344      51.317585      35.935501      4.9354
-8      37.008560      51.174103      36.642273      5.6106
-8      43.464745      53.286484      34.731205      3.7921
-8      44.189308      50.827148      37.378735      2.7916
-8      47.363949      52.600761      33.825687      5.6568

$$$$
