@<TRIPOS>MOLECULE
bindingdb_similar_1x70_processed:70
 57 60 0 0 0
SMALL
GASTEIGER

@<TRIPOS>ATOM
      1 C          34.4507   49.2571   36.3267 C.ar    1  LIG1        0.1611
      2 C          34.6272   50.5775   36.6717 C.ar    1  LIG1        0.0119
      3 C          35.8944   51.1169   36.7265 C.ar    1  LIG1        0.1296
      4 C          36.9958   50.3350   36.4370 C.ar    1  LIG1       -0.0040
      5 C          36.8145   49.0110   36.0982 C.ar    1  LIG1       -0.0175
      6 C          35.5490   48.4706   36.0395 C.ar    1  LIG1        0.1588
      7 F          35.3890   47.1832   35.6995 F       1  LIG1       -0.2025
      8 F          33.2138   48.7431   36.2700 F       1  LIG1       -0.2024
      9 F          36.0422   52.4073   37.0607 F       1  LIG1       -0.2051
     10 C          38.4044   50.9133   36.4700 C.3     1  LIG1        0.0187
     11 C          39.0725   51.0747   35.0854 C.3     1  LIG1       -0.0118
     12 C          40.4536   51.7523   35.2031 C.3     1  LIG1        0.0673
     13 N          38.2133   51.9202   34.1835 N.4     1  LIG1        0.2213
     14 C          41.4858   50.9711   35.9948 C.2     1  LIG1        0.2216
     15 N          42.6727   51.5980   36.1547 N.am    1  LIG1       -0.2892
     16 C          43.0279   52.8913   35.5112 C.3     1  LIG1        0.0335
     17 C          44.2540   52.6919   34.5948 C.3     1  LIG1        0.0422
     18 C          43.6823   50.9639   37.0323 C.3     1  LIG1        0.0899
     19 N          46.1841   50.6728   36.8020 N.ar    1  LIG1       -0.1321
     20 C          45.0519   51.1745   36.4191 C.ar    1  LIG1        0.1547
     21 N          45.2902   51.9510   35.3295 N.ar    1  LIG1       -0.3046
     22 C          46.6239   51.8845   35.0514 C.ar    1  LIG1        0.2377
     23 N          47.1604   51.1146   35.9495 N.ar    1  LIG1       -0.1250
     24 C          47.3549   52.5581   33.9033 C.3     1  LIG1        0.4524
     25 F          46.8978   52.0876   32.6767 F       1  LIG1       -0.1632
     26 F          48.7227   52.3146   33.9568 F       1  LIG1       -0.1632
     27 F          47.1793   53.9375   33.9158 F       1  LIG1       -0.1632
     28 O          41.2377   49.8631   36.4528 O.2     1  LIG1       -0.2754
     29 C          43.5955   51.4778   38.4844 C.3     1  LIG1        0.0008
     30 C          42.2919   51.1723   39.2103 C.ar    1  LIG1       -0.0100
     31 C          41.2410   52.0588   39.1156 C.ar    1  LIG1       -0.0558
     32 C          40.0631   51.8183   39.7845 C.ar    1  LIG1       -0.0613
     33 C          39.9260   50.6828   40.5488 C.ar    1  LIG1       -0.0590
     34 C          40.9655   49.7864   40.6379 C.ar    1  LIG1       -0.0262
     35 C          42.1491   50.0296   39.9737 C.ar    1  LIG1        0.1266
     36 F          43.1626   49.1558   40.0840 F       1  LIG1       -0.2052
     37 H          33.8334   51.1485   36.8811 H       1  LIG1        0.0676
     38 H          37.6081   48.4396   35.8880 H       1  LIG1        0.0651
     39 H          38.4068   51.9824   37.0158 H       1  LIG1        0.0369
     40 H          39.0750   50.1733   37.1342 H       1  LIG1        0.0369
     41 H          39.2068   49.9915   34.5880 H       1  LIG1        0.0858
     42 H          40.2738   52.8198   35.7206 H       1  LIG1        0.0414
     43 H          40.8642   51.8849   34.0834 H       1  LIG1        0.0414
     44 H          37.3897   51.5553   34.0645 H       1  LIG1        0.1997
     45 H          38.5749   52.0193   33.3552 H       1  LIG1        0.1997
     46 H          38.0876   52.7541   34.5235 H       1  LIG1        0.1997
     47 H          42.1836   53.4363   34.8605 H       1  LIG1        0.0482
     48 H          43.3499   53.6564   36.3769 H       1  LIG1        0.0482
     49 H          44.6656   53.7646   34.2502 H       1  LIG1        0.0508
     50 H          43.9264   52.0574   33.6304 H       1  LIG1        0.0508
     51 H          43.4885   49.7795   37.0488 H       1  LIG1        0.0585
     52 H          44.5062   51.0000   39.1040 H       1  LIG1        0.0336
     53 H          43.7638   52.6660   38.4816 H       1  LIG1        0.0336
     54 H          41.3374   52.8858   38.5612 H       1  LIG1        0.0621
     55 H          39.3069   52.4692   39.7158 H       1  LIG1        0.0618
     56 H          39.0707   50.5084   41.0371 H       1  LIG1        0.0618
     57 H          40.8638   48.9589   41.1902 H       1  LIG1        0.0646
@<TRIPOS>BOND
     1     1     2   ar
     2     1     8    1
     3     2     3   ar
     4     2    37    1
     5     3     4   ar
     6     3     9    1
     7     4     5   ar
     8     4    10    1
     9     5     6   ar
    10     5    38    1
    11     6     1   ar
    12     6     7    1
    13    10    39    1
    14    10    40    1
    15    11    10    1
    16    11    12    1
    17    11    13    1
    18    11    41    1
    19    12    14    1
    20    12    42    1
    21    12    43    1
    22    13    44    1
    23    13    45    1
    24    13    46    1
    25    14    15   am
    26    14    28    2
    27    15    16    1
    28    15    18    1
    29    16    17    1
    30    16    47    1
    31    16    48    1
    32    17    21    1
    33    17    49    1
    34    17    50    1
    35    18    29    1
    36    18    51    1
    37    19    20   ar
    38    20    18    1
    39    20    21   ar
    40    21    22   ar
    41    22    23   ar
    42    22    24    1
    43    23    19   ar
    44    24    25    1
    45    24    26    1
    46    24    27    1
    47    29    30    1
    48    29    52    1
    49    29    53    1
    50    30    31   ar
    51    31    32   ar
    52    31    54    1
    53    32    33   ar
    54    32    55    1
    55    33    34   ar
    56    33    56    1
    57    34    35   ar
    58    34    57    1
    59    35    30   ar
    60    35    36    1
