bindingdb_similar_1x70_processed:35
 OpenBabel04261912203D

 47 49  0  0  1  0  0  0  0  0999 V2000
   34.8106   48.8367   36.4585 C   0  0  0  0  0  0  0  0  0  0  0  0
   34.8217   50.1590   36.8351 C   0  0  0  0  0  0  0  0  0  0  0  0
   35.9981   50.8791   36.8604 C   0  0  0  0  0  0  0  0  0  0  0  0
   37.1811   50.2576   36.4964 C   0  0  0  0  0  0  0  0  0  0  0  0
   37.1618   48.9296   36.1253 C   0  0  0  0  0  0  0  0  0  0  0  0
   35.9851   48.2190   36.1035 C   0  0  0  0  0  0  0  0  0  0  0  0
   38.5432   50.9479   36.4777 C   0  0  0  0  0  0  0  0  0  0  0  0
   39.2254   51.0318   35.0938 C   0  0  1  0  0  0  0  0  0  0  0  0
   38.3742   51.8366   34.1525 N   0  3  0  0  0  0  0  0  0  0  0  0
   40.6094   51.7056   35.2012 C   0  0  0  0  0  0  0  0  0  0  0  0
   41.6225   50.9058   35.9991 C   0  0  0  0  0  0  0  0  0  0  0  0
   41.3505   49.7964   36.4387 O   0  0  0  0  0  0  0  0  0  0  0  0
   42.8159   51.5149   36.1797 N   0  0  0  0  0  0  0  0  0  0  0  0
   43.1898   52.8240   35.5844 C   0  0  0  0  0  0  0  0  0  0  0  0
   44.4111   52.6535   34.6540 C   0  0  0  0  0  0  0  0  0  0  0  0
   43.8319   50.8561   37.0284 C   0  0  0  0  0  0  0  0  0  0  0  0
   45.2007   51.0589   36.4114 C   0  0  0  0  0  0  0  0  0  0  0  0
   45.4444   51.8752   35.3529 N   0  0  0  0  0  0  0  0  0  0  0  0
   46.7774   51.8091   35.0687 C   0  0  0  0  0  0  0  0  0  0  0  0
   47.3071   50.9946   35.9311 N   0  0  0  0  0  0  0  0  0  0  0  0
   46.3279   50.5279   36.7678 N   0  0  0  0  0  0  0  0  0  0  0  0
   47.5161   52.5326   33.9554 C   0  0  0  0  0  0  0  0  0  0  0  0
   47.0311   52.1616   32.7056 F   0  0  0  0  0  0  0  0  0  0  0  0
   47.3875   53.9134   34.0616 F   0  0  0  0  0  0  0  0  0  0  0  0
   48.8763   52.2433   33.9727 F   0  0  0  0  0  0  0  0  0  0  0  0
   35.9280   52.3382   37.2945 C   0  0  0  0  0  0  0  0  0  0  0  0
   36.7528   52.5761   38.3882 F   0  0  0  0  0  0  0  0  0  0  0  0
   36.3343   53.1812   36.2663 F   0  0  0  0  0  0  0  0  0  0  0  0
   34.6491   52.7426   37.6673 F   0  0  0  0  0  0  0  0  0  0  0  0
   39.3597   49.9246   34.6506 H   0  0  0  0  0  0  0  0  0  0  0  0
   33.9507   48.3262   36.4442 H   0  0  0  0  0  0  0  0  0  0  0  0
   33.9633   50.6012   37.0940 H   0  0  0  0  0  0  0  0  0  0  0  0
   38.0154   48.4778   35.8658 H   0  0  0  0  0  0  0  0  0  0  0  0
   35.9839   47.2571   35.8300 H   0  0  0  0  0  0  0  0  0  0  0  0
   38.4743   52.0642   36.9057 H   0  0  0  0  0  0  0  0  0  0  0  0
   39.2574   50.3287   37.2162 H   0  0  0  0  0  0  0  0  0  0  0  0
   37.5430   51.4779   34.0613 H   0  0  0  0  0  0  0  0  0  0  0  0
   38.7326   51.8830   33.3173 H   0  0  0  0  0  0  0  0  0  0  0  0
   38.2611   52.6922   34.4417 H   0  0  0  0  0  0  0  0  0  0  0  0
   40.4348   52.7740   35.7189 H   0  0  0  0  0  0  0  0  0  0  0  0
   41.0276   51.8385   34.0840 H   0  0  0  0  0  0  0  0  0  0  0  0
   42.3506   53.4042   34.9580 H   0  0  0  0  0  0  0  0  0  0  0  0
   43.5224   53.5387   36.4890 H   0  0  0  0  0  0  0  0  0  0  0  0
   44.0760   52.0617   33.6653 H   0  0  0  0  0  0  0  0  0  0  0  0
   44.8328   53.7346   34.3503 H   0  0  0  0  0  0  0  0  0  0  0  0
   43.6101   49.6797   37.1091 H   0  0  0  0  0  0  0  0  0  0  0  0
   43.8126   51.3421   38.1253 H   0  0  0  0  0  0  0  0  0  0  0  0
  1  2  2  0  0  0  0
  1 31  1  0  0  0  0
  2  3  1  0  0  0  0
  2 32  1  0  0  0  0
  3  4  2  0  0  0  0
  3 26  1  0  0  0  0
  4  5  1  0  0  0  0
  4  7  1  0  0  0  0
  5  6  2  0  0  0  0
  5 33  1  0  0  0  0
  6  1  1  0  0  0  0
  6 34  1  0  0  0  0
  7 35  1  0  0  0  0
  7 36  1  0  0  0  0
  8  7  1  0  0  0  0
  8  9  1  0  0  0  0
  8 10  1  0  0  0  0
  8 30  1  6  0  0  0
  9 37  1  0  0  0  0
  9 38  1  0  0  0  0
  9 39  1  0  0  0  0
 10 11  1  0  0  0  0
 10 40  1  0  0  0  0
 10 41  1  0  0  0  0
 11 12  2  0  0  0  0
 11 13  1  0  0  0  0
 13 14  1  0  0  0  0
 13 16  1  0  0  0  0
 14 15  1  0  0  0  0
 14 42  1  0  0  0  0
 14 43  1  0  0  0  0
 15 18  1  0  0  0  0
 15 44  1  0  0  0  0
 15 45  1  0  0  0  0
 16 46  1  0  0  0  0
 16 47  1  0  0  0  0
 17 16  1  0  0  0  0
 17 18  1  0  0  0  0
 18 19  1  0  0  0  0
 19 20  2  0  0  0  0
 19 22  1  0  0  0  0
 20 21  1  0  0  0  0
 21 17  2  0  0  0  0
 22 23  1  0  0  0  0
 22 24  1  0  0  0  0
 22 25  1  0  0  0  0
 26 27  1  0  0  0  0
 26 28  1  0  0  0  0
 26 29  1  0  0  0  0
M  CHG  1   9   1
M  END
>  <Mean(IC50 fixed2)>
486

>  <First(BindingDB Ligand Name)>
CHEMBL397744

>  <Concatenate(Target Name Assigned by Curator or DataSource)>
Dipeptidyl Peptidase IV (DPP-IV)

>  <First(Target Source Organism According to Curator or DataSource)>
Homo sapiens

>  <First(Curation/DataSource)>
ChEMBL

>  <First(Article DOI)>
10.1016/j.bmcl.2007.03.098

>  <Mean(PMID)>
17434732

>  <First(Authors)>
Kim, D; Kowalchick, JE; Edmondson, SD; Mastracchio, A; Xu, J; Eiermann, GJ; Leiting, B; Wu, JK; Pryor, KD; Patel, RA; He, H; Lyons, KA; Thornberry, NA; Weber, AE

>  <First(Institution)>
Merck Research Laboratories<span class=m1fontSize>Curated by</span> <a href=http://www.ebi.ac.uk/chembl/>ChEMBL</a>

>  <First(Link to Ligand in BindingDB)>
http://www.bindingdb.org/bind/chemsearch/marvin/MolStructure.jsp?monomerid=50210644

>  <First(Link to Ligand-Target Pair in BindingDB)>
http://www.bindingdb.org/jsp/dbsearch/PrimarySearch_ki.jsp?energyterm=kJ/mole&tag=r21&monomerid=50210644&enzyme=Dipeptidyl+Peptidase+IV+%28DPP-IV%29&column=ki&startPg=0&Increment=50&submit=Search

>  <Mean(PubChem CID)>
44431188

>  <Mean(PubChem SID)>
104087131

>  <First(ZINC ID of Ligand)>
ZINC28820775

>  <Concatenate*(UniProt (SwissProt) Entry Name of Target Chain)>
DPP4_HUMAN

>  <Mean(Number of Protein Chains in Target (>1 implies a multichain complex))>
1

>  <Median(pIC50)>
6.31336373073771

>  <Journal>
BiorgMedChemLett2007

>  <Activity Classes>
6.31336373073771

>  <Conformer_cresset>
1

>  <Similarity_cresset>
0.787

>  <Favorite_cresset>
false

>  <Activity (Median(pIC50))_cresset>
6.31

>  <LE (Median(pIC50))_cresset>
0.305

>  <LipE (Median(pIC50))_cresset>
3.7

>  <Tags_cresset>
training

>  <Confs_cresset>
1

>  <Conf#_cresset>
1

>  <Alns_cresset>
1

>  <MW_cresset>
422.4

>  <#Atoms_cresset>
29

>  <SlogP_cresset>
2.6

>  <TPSA_cresset>
78.7

>  <Flexibility_cresset>
4.9

>  <#RB_cresset>
7

>  <Rof5_cresset>
0

>  <Filename_cresset>
bindingdb_similar_1x70_processed.sdf

>  <Notes_cresset>
30

>  <Selected Alignment_cresset>
true

>  <Alignment Cluster Centre_cresset>
false

>  <_cresset_fieldpoints>
-5      36.830048      48.760162      39.232567     -3.1575
-5      40.605186      48.215969      36.872017     -7.6459
-5      47.987564      49.743011      37.139755    -12.3473
-6      31.808205      49.564606      36.913853      3.9266
-6      33.660515      46.102165      35.607803      3.6074
-6      42.226921      53.434978      32.757469     11.3764
-6      37.342171      46.005089      34.467117      3.1215
-7      33.736771      45.708965      35.677353     -0.9702
-7      35.146542      51.101639      33.654156     -2.5708
-7      37.378807      49.294823      32.894260     -2.2633
-7      40.330704      47.837753      35.918919     -2.4061
-7      40.910957      52.413078      38.375336     -2.8147
-7      42.094582      53.363007      32.342949     -1.6948
-7      40.392799      50.102631      32.196808     -1.5315
-7      39.194710      54.486061      37.011841     -2.1824
-7      40.082222      54.316216      33.516037     -1.8949
-7      45.947460      54.340961      37.067604     -2.3059
-7      44.715496      54.280052      31.817402     -1.5596
-7      47.445435      48.637547      35.449745     -1.4923
-7      49.253277      54.245880      31.293226     -1.1105
-7      48.117878      51.822342      38.049507     -1.4879
-7      43.219803      49.625744      33.948406     -2.7132
-7      35.915836      55.807663      38.281612     -1.1467
-7      36.824699      49.353378      39.675003     -2.3000
-8      35.999001      49.558128      36.478188      7.2276
-8      35.969467      52.127312      37.224480      6.2979
-8      36.748260      51.708817      36.983402      6.2086
-8      39.650002      51.316963      35.945671      4.9929
-8      43.633774      53.241341      34.806591      3.7923
-8      47.537811      52.581005      33.886856      5.6561
-8      43.869461      51.958542      36.193565      2.6643
-8      44.338669      50.686859      37.354141      2.7943

$$$$
