Copy of bindingdb_similar_1x70_processed:75
 OpenBabel04261912203D

 63 66  0  0  1  0  0  0  0  0999 V2000
   34.4437   49.2503   36.3227 C   0  0  0  0  0  0  0  0  0  0  0  0
   34.6196   50.5714   36.6656 C   0  0  0  0  0  0  0  0  0  0  0  0
   35.8867   51.1112   36.7186 C   0  0  0  0  0  0  0  0  0  0  0  0
   36.9885   50.3293   36.4298 C   0  0  0  0  0  0  0  0  0  0  0  0
   36.8074   49.0053   36.0927 C   0  0  0  0  0  0  0  0  0  0  0  0
   35.5422   48.4640   36.0357 C   0  0  0  0  0  0  0  0  0  0  0  0
   35.3830   47.1760   35.6989 F   0  0  0  0  0  0  0  0  0  0  0  0
   33.2071   48.7354   36.2669 F   0  0  0  0  0  0  0  0  0  0  0  0
   36.0329   52.4026   37.0510 F   0  0  0  0  0  0  0  0  0  0  0  0
   38.3983   50.9070   36.4642 C   0  0  0  0  0  0  0  0  0  0  0  0
   39.0716   51.0659   35.0811 C   0  0  2  0  0  0  0  0  0  0  0  0
   40.4534   51.7448   35.2022 C   0  0  0  0  0  0  0  0  0  0  0  0
   38.2146   51.9110   34.1775 N   0  3  0  0  0  0  0  0  0  0  0  0
   41.4851   50.9713   36.0018 C   0  0  0  0  0  0  0  0  0  0  0  0
   42.6665   51.6072   36.1723 N   0  0  0  0  0  0  0  0  0  0  0  0
   43.0230   52.8954   35.5202 C   0  0  0  0  0  0  0  0  0  0  0  0
   44.2457   52.6877   34.6005 C   0  0  0  0  0  0  0  0  0  0  0  0
   43.6797   50.9854   37.0570 C   0  0  1  0  0  0  0  0  0  0  0  0
   46.1768   50.6693   36.8068 N   0  0  0  0  0  0  0  0  0  0  0  0
   45.0461   51.1795   36.4309 C   0  0  0  0  0  0  0  0  0  0  0  0
   45.2829   51.9479   35.3350 N   0  0  0  0  0  0  0  0  0  0  0  0
   46.6154   51.8745   35.0511 C   0  0  0  0  0  0  0  0  0  0  0  0
   47.1513   51.1025   35.9478 N   0  0  0  0  0  0  0  0  0  0  0  0
   47.3482   52.5475   33.9029 C   0  0  0  0  0  0  0  0  0  0  0  0
   47.1766   53.9275   33.9162 F   0  0  0  0  0  0  0  0  0  0  0  0
   48.7158   52.3020   33.9575 F   0  0  0  0  0  0  0  0  0  0  0  0
   46.8926   52.0798   32.6748 F   0  0  0  0  0  0  0  0  0  0  0  0
   41.2374   49.8614   36.4545 O   0  0  0  0  0  0  0  0  0  0  0  0
   43.6265   51.5022   38.5116 C   0  0  0  0  0  0  0  0  0  0  0  0
   42.3189   51.2141   39.2325 C   0  0  0  0  0  0  0  0  0  0  0  0
   41.2962   52.1362   39.2128 C   0  0  0  0  0  0  0  0  0  0  0  0
   40.1045   51.8697   39.8492 C   0  0  0  0  0  0  0  0  0  0  0  0
   39.9403   50.6699   40.5060 C   0  0  0  0  0  0  0  0  0  0  0  0
   40.9545   49.7384   40.5283 C   0  0  0  0  0  0  0  0  0  0  0  0
   42.1445   50.0195   39.8950 C   0  0  0  0  0  0  0  0  0  0  0  0
   40.7300   48.4097   41.2294 C   0  0  0  0  0  0  0  0  0  0  0  0
   41.8683   47.6099   41.2633 F   0  0  0  0  0  0  0  0  0  0  0  0
   39.7345   47.6846   40.5808 F   0  0  0  0  0  0  0  0  0  0  0  0
   40.3217   48.5950   42.5447 F   0  0  0  0  0  0  0  0  0  0  0  0
   38.9753   52.8852   39.8320 C   0  0  0  0  0  0  0  0  0  0  0  0
   37.7437   52.2744   39.6182 F   0  0  0  0  0  0  0  0  0  0  0  0
   39.1330   53.8419   38.8326 F   0  0  0  0  0  0  0  0  0  0  0  0
   38.9053   53.5573   41.0481 F   0  0  0  0  0  0  0  0  0  0  0  0
   33.8254   51.1420   36.8746 H   0  0  0  0  0  0  0  0  0  0  0  0
   37.6006   48.4336   35.8833 H   0  0  0  0  0  0  0  0  0  0  0  0
   39.0675   50.1679   37.1314 H   0  0  0  0  0  0  0  0  0  0  0  0
   38.3997   51.9775   37.0069 H   0  0  0  0  0  0  0  0  0  0  0  0
   39.2077   49.9825   34.5835 H   0  0  0  0  0  0  0  0  0  0  0  0
   40.2674   52.8146   35.7138 H   0  0  0  0  0  0  0  0  0  0  0  0
   40.8683   51.8744   34.0834 H   0  0  0  0  0  0  0  0  0  0  0  0
   37.3913   51.5441   34.0555 H   0  0  0  0  0  0  0  0  0  0  0  0
   38.5790   52.0124   33.3500 H   0  0  0  0  0  0  0  0  0  0  0  0
   38.0875   52.7447   34.5195 H   0  0  0  0  0  0  0  0  0  0  0  0
   42.1780   53.4361   34.8672 H   0  0  0  0  0  0  0  0  0  0  0  0
   43.3480   53.6645   36.3815 H   0  0  0  0  0  0  0  0  0  0  0  0
   43.9141   52.0487   33.6405 H   0  0  0  0  0  0  0  0  0  0  0  0
   44.6592   53.7570   34.2478 H   0  0  0  0  0  0  0  0  0  0  0  0
   43.4796   49.8025   37.0909 H   0  0  0  0  0  0  0  0  0  0  0  0
   44.5197   50.9789   39.1186 H   0  0  0  0  0  0  0  0  0  0  0  0
   43.8350   52.6836   38.5174 H   0  0  0  0  0  0  0  0  0  0  0  0
   41.4185   53.0016   38.7271 H   0  0  0  0  0  0  0  0  0  0  0  0
   39.0750   50.4705   40.9661 H   0  0  0  0  0  0  0  0  0  0  0  0
   42.8851   49.3484   39.9074 H   0  0  0  0  0  0  0  0  0  0  0  0
  1  2  2  0  0  0  0
  1  8  1  0  0  0  0
  2  3  1  0  0  0  0
  2 44  1  0  0  0  0
  3  4  2  0  0  0  0
  3  9  1  0  0  0  0
  4  5  1  0  0  0  0
  4 10  1  0  0  0  0
  5  6  2  0  0  0  0
  5 45  1  0  0  0  0
  6  1  1  0  0  0  0
  6  7  1  0  0  0  0
 10 46  1  0  0  0  0
 10 47  1  0  0  0  0
 11 10  1  0  0  0  0
 11 12  1  0  0  0  0
 11 13  1  0  0  0  0
 11 48  1  6  0  0  0
 12 14  1  0  0  0  0
 12 49  1  0  0  0  0
 12 50  1  0  0  0  0
 13 51  1  0  0  0  0
 13 52  1  0  0  0  0
 13 53  1  0  0  0  0
 14 15  1  0  0  0  0
 14 28  2  0  0  0  0
 15 16  1  0  0  0  0
 15 18  1  0  0  0  0
 16 17  1  0  0  0  0
 16 54  1  0  0  0  0
 16 55  1  0  0  0  0
 17 21  1  0  0  0  0
 17 56  1  0  0  0  0
 17 57  1  0  0  0  0
 18 29  1  0  0  0  0
 18 58  1  1  0  0  0
 19 20  2  0  0  0  0
 20 18  1  0  0  0  0
 20 21  1  0  0  0  0
 21 22  1  0  0  0  0
 22 23  2  0  0  0  0
 22 24  1  0  0  0  0
 23 19  1  0  0  0  0
 24 25  1  0  0  0  0
 24 26  1  0  0  0  0
 24 27  1  0  0  0  0
 29 30  1  0  0  0  0
 29 59  1  0  0  0  0
 29 60  1  0  0  0  0
 30 31  2  0  0  0  0
 31 32  1  0  0  0  0
 31 61  1  0  0  0  0
 32 33  2  0  0  0  0
 32 40  1  0  0  0  0
 33 34  1  0  0  0  0
 33 62  1  0  0  0  0
 34 35  2  0  0  0  0
 34 36  1  0  0  0  0
 35 30  1  0  0  0  0
 35 63  1  0  0  0  0
 36 37  1  0  0  0  0
 36 38  1  0  0  0  0
 36 39  1  0  0  0  0
 40 41  1  0  0  0  0
 40 42  1  0  0  0  0
 40 43  1  0  0  0  0
M  CHG  1  13   1
M  END
>  <Mean(IC50 fixed2)>
296.65

>  <First(BindingDB Ligand Name)>
CHEMBL536312

>  <Concatenate(Target Name Assigned by Curator or DataSource)>
Dipeptidyl Peptidase IV (DPP-IV), Dipeptidyl Peptidase IV (DPP-IV)

>  <First(Target Source Organism According to Curator or DataSource)>
Homo sapiens

>  <First(Curation/DataSource)>
ChEMBL

>  <First(Article DOI)>
10.1021/jm070330v

>  <Mean(PMID)>
18201067

>  <First(Authors)>
Kim, D; Kowalchick, JE; Brockunier, LL; Parmee, ER; Eiermann, GJ; Fisher, MH; He, H; Leiting, B; Lyons, K; Scapin, G; Patel, SB; Petrov, A; Pryor, KD; Roy, RS; Wu, JK; Zhang, X; Wyvratt, MJ; Zhang, BB; Zhu, L; Thornberry, NA; Weber, AE

>  <First(Institution)>
Merck Research Laboratories<span class=m1fontSize>Curated by</span> <a href=http://www.ebi.ac.uk/chembl/>ChEMBL</a>

>  <First(Link to Ligand in BindingDB)>
http://www.bindingdb.org/bind/chemsearch/marvin/MolStructure.jsp?monomerid=50232519

>  <First(Link to Ligand-Target Pair in BindingDB)>
http://www.bindingdb.org/jsp/dbsearch/PrimarySearch_ki.jsp?energyterm=kJ/mole&tag=r21&monomerid=50232519&enzyme=Dipeptidyl+Peptidase+IV+%28DPP-IV%29&column=ki&startPg=0&Increment=50&submit=Search

>  <Mean(PubChem CID)>
44445064

>  <Mean(PubChem SID)>
104055531

>  <First(ZINC ID of Ligand)>
ZINC37008924

>  <Concatenate*(UniProt (SwissProt) Entry Name of Target Chain)>
DPP4_HUMAN, DPP4_HUMAN

>  <Mean(Number of Protein Chains in Target (>1 implies a multichain complex))>
1

>  <Median(pIC50)>
8.201

>  <Journal>
JMedChem2008

>  <Activity Classes>
8.201

>  <Conformer_cresset>
1

>  <Similarity_cresset>
0.874

>  <Favorite_cresset>
false

>  <Activity (Median(pIC50))_cresset>
8.2

>  <LE (Median(pIC50))_cresset>
0.267

>  <LipE (Median(pIC50))_cresset>
1.5

>  <Tags_cresset>
test

>  <Confs_cresset>
7

>  <Conf#_cresset>
1

>  <Alns_cresset>
7

>  <MW_cresset>
634.4

>  <#Atoms_cresset>
43

>  <SlogP_cresset>
6.7

>  <TPSA_cresset>
78.7

>  <Flexibility_cresset>
6.9

>  <#RB_cresset>
10

>  <Rof5_cresset>
2

>  <Filename_cresset>
bindingdb_similar_1x70_processed.sdf

>  <Notes_cresset>
48b

>  <Selected Alignment_cresset>
true

>  <Alignment Cluster Centre_cresset>
true

>  <_cresset_fieldpoints>
-5      37.386219      48.841801      39.141254     -1.3035
-5      47.858376      49.889374      37.171368    -11.2904
-5      32.805984      45.931328      35.716656     -2.7644
-5      41.930775      51.816620      42.743969     -1.2897
-5      40.837704      48.396683      37.442818     -8.7794
-6      37.377254      50.376808      42.166653      3.5031
-6      35.741810      50.481274      33.221264      5.4423
-6      41.183975      54.807041      36.485027     11.0330
-6      42.063404      53.397167      32.679272     12.1220
-6      44.626987      48.516834      39.119713      2.8331
-6      44.934227      49.011196      40.418568      2.8053
-7      37.091183      49.359131      32.902905     -2.4220
-7      43.125206      49.596027      34.072216     -2.8169
-7      35.365044      50.369934      33.228752     -2.5513
-7      36.046032      54.984779      39.216286     -1.5081
-7      37.116264      49.171009      39.465252     -3.7158
-7      38.341518      54.598785      35.972939     -2.3874
-7      39.929630      54.391300      33.568169     -1.9195
-7      40.164417      50.278973      32.105492     -1.5210
-7      41.935726      53.282494      32.256641     -1.6978
-7      44.536060      54.103405      31.665098     -1.5806
-7      44.808514      48.308212      38.801483     -2.3257
-7      49.067341      54.130379      31.153183     -1.1107
-7      45.711819      54.309494      37.178524     -2.7037
-7      47.241280      48.707558      35.639633     -1.5272
-7      41.320004      54.987915      37.069134     -2.3927
-7      41.958397      52.195541      42.693649     -2.4763
-7      37.712830      50.953049      42.869881     -2.0524
-7      40.316662      48.129513      37.531769     -3.7413
-7      40.084526      45.263866      42.873276     -1.1282
-7      41.948799      55.020489      40.393589     -1.9175
-8      35.712017      49.787502      36.377773      7.2745
-8      40.744576      48.609344      41.126347      6.2544
-8      39.506943      51.329041      35.954708      5.0060
-8      41.120079      50.940720      39.870289      7.2959
-8      43.462986      53.283535      34.735519      3.8111
-8      47.369682      52.589725      33.833920      5.6581
-8      37.016602      51.196938      36.673679      5.6761
-8      39.135365      52.723518      39.822025      6.3012

$$$$
