@<TRIPOS>MOLECULE
bindingdb_similar_1x70_processed:74
 60 63 0 0 0
SMALL
GASTEIGER

@<TRIPOS>ATOM
      1 C          34.4432   49.2507   36.2887 C.ar    1  LIG1        0.1611
      2 C          34.6162   50.5680   36.6479 C.ar    1  LIG1        0.0119
      3 C          35.8822   51.1092   36.7093 C.ar    1  LIG1        0.1296
      4 C          36.9846   50.3322   36.4114 C.ar    1  LIG1       -0.0040
      5 C          36.8074   49.0111   36.0604 C.ar    1  LIG1       -0.0175
      6 C          35.5433   48.4687   35.9958 C.ar    1  LIG1        0.1588
      7 C          38.3912   50.9153   36.4492 C.3     1  LIG1        0.0187
      8 C          39.0560   51.0920   35.0641 C.3     1  LIG1       -0.0118
      9 C          40.4375   51.7674   35.1899 C.3     1  LIG1        0.0673
     10 N          38.1977   51.9449   34.1703 N.4     1  LIG1        0.2213
     11 C          41.4650   50.9668   35.9675 C.2     1  LIG1        0.2216
     12 N          42.6603   51.5772   36.1291 N.am    1  LIG1       -0.2891
     13 O          41.2018   49.8577   36.4137 O.2     1  LIG1       -0.2754
     14 C          43.0206   52.8817   35.5080 C.3     1  LIG1        0.0350
     15 C          44.2591   52.7334   34.5957 C.3     1  LIG1        0.0593
     16 C          43.6666   50.9133   36.9907 C.3     1  LIG1        0.0894
     17 C          45.0443   51.1676   36.4087 C.ar    1  LIG1        0.1490
     18 N          45.2640   51.9837   35.3573 N.ar    1  LIG1       -0.2454
     19 N          46.5974   51.9895   35.1107 N.ar    1  LIG1       -0.1453
     20 C          47.1264   51.2010   36.0043 C.ar    1  LIG1        0.2548
     21 N          46.1943   50.6757   36.8272 N.ar    1  LIG1       -0.2061
     22 F          36.0281   52.3965   37.0569 F       1  LIG1       -0.2051
     23 F          33.2074   48.7354   36.2238 F       1  LIG1       -0.2024
     24 F          35.3863   47.1843   35.6434 F       1  LIG1       -0.2025
     25 C          48.6095   50.9107   36.1168 C.3     1  LIG1        0.4540
     26 F          49.1938   51.6761   37.1196 F       1  LIG1       -0.1631
     27 F          49.2804   51.1841   34.9301 F       1  LIG1       -0.1631
     28 F          48.8346   49.5744   36.4254 F       1  LIG1       -0.1631
     29 C          43.6053   51.3807   38.4609 C.3     1  LIG1       -0.0019
     30 C          42.3100   51.1434   39.2257 C.ar    1  LIG1       -0.0452
     31 C          42.2080   50.0703   40.0826 C.ar    1  LIG1       -0.0580
     32 C          41.0654   49.8786   40.8254 C.ar    1  LIG1       -0.0499
     33 C          40.0103   50.7564   40.7166 C.ar    1  LIG1        0.0548
     34 C          40.1003   51.8152   39.8408 C.ar    1  LIG1       -0.0499
     35 C          41.2440   52.0078   39.1001 C.ar    1  LIG1       -0.0580
     36 C          38.7763   50.5704   41.5814 C.3     1  LIG1        0.4174
     37 F          38.9893   51.1028   42.8501 F       1  LIG1       -0.1659
     38 F          37.6575   51.2062   41.0516 F       1  LIG1       -0.1659
     39 F          38.4513   49.2276   41.7440 F       1  LIG1       -0.1659
     40 H          33.8206   51.1348   36.8622 H       1  LIG1        0.0676
     41 H          37.6023   48.4439   35.8452 H       1  LIG1        0.0651
     42 H          38.3908   51.9786   37.0056 H       1  LIG1        0.0369
     43 H          39.0650   50.1720   37.1064 H       1  LIG1        0.0369
     44 H          39.1902   50.0138   34.5540 H       1  LIG1        0.0858
     45 H          40.8460   51.9147   34.0707 H       1  LIG1        0.0414
     46 H          40.2620   52.8275   35.7259 H       1  LIG1        0.0414
     47 H          37.3750   51.5792   34.0464 H       1  LIG1        0.1997
     48 H          38.5612   52.0524   33.3434 H       1  LIG1        0.1997
     49 H          38.0695   52.7747   34.5195 H       1  LIG1        0.1997
     50 H          42.1786   53.4363   34.8633 H       1  LIG1        0.0483
     51 H          43.3198   53.6294   36.3965 H       1  LIG1        0.0483
     52 H          43.9625   52.1275   33.6029 H       1  LIG1        0.0525
     53 H          44.6855   53.8158   34.3040 H       1  LIG1        0.0525
     54 H          43.4803   49.7286   36.9641 H       1  LIG1        0.0585
     55 H          44.4945   50.8295   39.0509 H       1  LIG1        0.0335
     56 H          43.8472   52.5555   38.4857 H       1  LIG1        0.0335
     57 H          42.9736   49.4341   40.1753 H       1  LIG1        0.0620
     58 H          41.0051   49.1041   41.4546 H       1  LIG1        0.0623
     59 H          39.3348   52.4518   39.7495 H       1  LIG1        0.0623
     60 H          41.3059   52.7869   38.4759 H       1  LIG1        0.0620
@<TRIPOS>BOND
     1     1     2   ar
     2     1    23    1
     3     2     3   ar
     4     2    40    1
     5     3     4   ar
     6     3    22    1
     7     4     5   ar
     8     4     7    1
     9     5     6   ar
    10     5    41    1
    11     6     1   ar
    12     6    24    1
    13     7     8    1
    14     7    42    1
    15     7    43    1
    16     8     9    1
    17     8    10    1
    18     8    44    1
    19     9    11    1
    20     9    45    1
    21     9    46    1
    22    10    47    1
    23    10    48    1
    24    10    49    1
    25    11    12   am
    26    11    13    2
    27    12    14    1
    28    12    16    1
    29    14    15    1
    30    14    50    1
    31    14    51    1
    32    15    18    1
    33    15    52    1
    34    15    53    1
    35    16    29    1
    36    16    54    1
    37    17    16    1
    38    17    18   ar
    39    18    19   ar
    40    19    20   ar
    41    20    21   ar
    42    20    25    1
    43    21    17   ar
    44    25    26    1
    45    25    27    1
    46    25    28    1
    47    29    30    1
    48    29    55    1
    49    29    56    1
    50    30    31   ar
    51    31    32   ar
    52    31    57    1
    53    32    33   ar
    54    32    58    1
    55    33    34   ar
    56    33    36    1
    57    34    35   ar
    58    34    59    1
    59    35    30   ar
    60    35    60    1
    61    36    37    1
    62    36    38    1
    63    36    39    1
