bindingdb_similar_1x70_processed:63
 OpenBabel04261912203D

 57 59  0  0  1  0  0  0  0  0999 V2000
   34.3982   49.1839   36.2632 C   0  0  0  0  0  0  0  0  0  0  0  0
   34.5746   50.5022   36.6159 C   0  0  0  0  0  0  0  0  0  0  0  0
   35.8418   51.0410   36.6787 C   0  0  0  0  0  0  0  0  0  0  0  0
   36.9463   50.2618   36.3910 C   0  0  0  0  0  0  0  0  0  0  0  0
   36.7636   48.9412   36.0388 C   0  0  0  0  0  0  0  0  0  0  0  0
   35.4980   48.4009   35.9715 C   0  0  0  0  0  0  0  0  0  0  0  0
   35.3386   47.1163   35.6215 F   0  0  0  0  0  0  0  0  0  0  0  0
   33.1612   48.6686   36.2038 F   0  0  0  0  0  0  0  0  0  0  0  0
   35.9847   52.3289   37.0244 F   0  0  0  0  0  0  0  0  0  0  0  0
   38.3584   50.8363   36.4523 C   0  0  0  0  0  0  0  0  0  0  0  0
   39.0687   51.0279   35.0911 C   0  0  2  0  0  0  0  0  0  0  0  0
   40.4424   51.7173   35.2602 C   0  0  0  0  0  0  0  0  0  0  0  0
   38.2291   51.8827   34.1798 N   0  3  0  0  0  0  0  0  0  0  0  0
   41.4648   50.9414   36.0703 C   0  0  0  0  0  0  0  0  0  0  0  0
   42.6458   51.5738   36.2590 N   0  0  0  0  0  0  0  0  0  0  0  0
   43.0047   52.8750   35.6345 C   0  0  0  0  0  0  0  0  0  0  0  0
   44.2088   52.6763   34.6882 C   0  0  0  0  0  0  0  0  0  0  0  0
   43.6655   50.9268   37.1173 C   0  0  1  0  0  0  0  0  0  0  0  0
   46.1534   50.5964   36.8253 N   0  0  0  0  0  0  0  0  0  0  0  0
   45.0223   51.1213   36.4732 C   0  0  0  0  0  0  0  0  0  0  0  0
   45.2515   51.9175   35.3955 N   0  0  0  0  0  0  0  0  0  0  0  0
   46.5822   51.8454   35.1001 C   0  0  0  0  0  0  0  0  0  0  0  0
   47.1221   51.0476   35.9711 N   0  0  0  0  0  0  0  0  0  0  0  0
   47.3152   52.5419   33.9675 C   0  0  0  0  0  0  0  0  0  0  0  0
   46.8534   52.1032   32.7316 F   0  0  0  0  0  0  0  0  0  0  0  0
   48.6822   52.2854   34.0179 F   0  0  0  0  0  0  0  0  0  0  0  0
   47.1497   53.9216   34.0139 F   0  0  0  0  0  0  0  0  0  0  0  0
   41.2109   49.8285   36.5111 O   0  0  0  0  0  0  0  0  0  0  0  0
   43.6282   51.4330   38.5717 C   0  0  0  0  0  0  0  0  0  0  0  0
   42.2479   51.1735   39.1449 C   0  0  0  0  0  0  0  0  0  0  0  0
   41.7788   50.0440   39.1068 O   0  0  0  0  0  0  0  0  0  0  0  0
   41.6038   52.2564   39.6324 N   0  0  0  0  0  0  0  0  0  0  0  0
   42.2623   53.5327   39.9538 C   0  0  0  0  0  0  0  0  0  0  0  0
   40.1597   52.2008   39.8923 C   0  0  0  0  0  0  0  0  0  0  0  0
   33.7801   51.0717   36.8267 H   0  0  0  0  0  0  0  0  0  0  0  0
   37.5574   48.3704   35.8280 H   0  0  0  0  0  0  0  0  0  0  0  0
   38.3462   51.8957   37.0159 H   0  0  0  0  0  0  0  0  0  0  0  0
   39.0156   50.0863   37.1197 H   0  0  0  0  0  0  0  0  0  0  0  0
   39.2240   49.9534   34.5793 H   0  0  0  0  0  0  0  0  0  0  0  0
   40.2334   52.7733   35.7903 H   0  0  0  0  0  0  0  0  0  0  0  0
   40.8844   51.8796   34.1561 H   0  0  0  0  0  0  0  0  0  0  0  0
   37.4042   51.5216   34.0463 H   0  0  0  0  0  0  0  0  0  0  0  0
   38.6071   51.9822   33.3570 H   0  0  0  0  0  0  0  0  0  0  0  0
   38.1020   52.7176   34.5223 H   0  0  0  0  0  0  0  0  0  0  0  0
   42.1522   53.4467   35.0189 H   0  0  0  0  0  0  0  0  0  0  0  0
   43.3555   53.6170   36.5089 H   0  0  0  0  0  0  0  0  0  0  0  0
   43.8555   52.0534   33.7256 H   0  0  0  0  0  0  0  0  0  0  0  0
   44.6240   53.7456   34.3377 H   0  0  0  0  0  0  0  0  0  0  0  0
   43.4465   49.7485   37.1528 H   0  0  0  0  0  0  0  0  0  0  0  0
   44.4255   50.8006   39.2062 H   0  0  0  0  0  0  0  0  0  0  0  0
   43.9814   52.5760   38.5480 H   0  0  0  0  0  0  0  0  0  0  0  0
   43.3329   53.3396   40.4597 H   0  0  0  0  0  0  0  0  0  0  0  0
   41.6012   54.1355   40.7536 H   0  0  0  0  0  0  0  0  0  0  0  0
   42.3618   54.1996   38.9613 H   0  0  0  0  0  0  0  0  0  0  0  0
   39.6344   53.1278   39.3391 H   0  0  0  0  0  0  0  0  0  0  0  0
   39.9521   52.2756   41.0719 H   0  0  0  0  0  0  0  0  0  0  0  0
   39.7017   51.1788   39.4623 H   0  0  0  0  0  0  0  0  0  0  0  0
  1  2  2  0  0  0  0
  1  8  1  0  0  0  0
  2  3  1  0  0  0  0
  2 35  1  0  0  0  0
  3  4  2  0  0  0  0
  3  9  1  0  0  0  0
  4  5  1  0  0  0  0
  4 10  1  0  0  0  0
  5  6  2  0  0  0  0
  5 36  1  0  0  0  0
  6  1  1  0  0  0  0
  6  7  1  0  0  0  0
 10 37  1  0  0  0  0
 10 38  1  0  0  0  0
 11 10  1  0  0  0  0
 11 12  1  0  0  0  0
 11 13  1  0  0  0  0
 11 39  1  6  0  0  0
 12 14  1  0  0  0  0
 12 40  1  0  0  0  0
 12 41  1  0  0  0  0
 13 42  1  0  0  0  0
 13 43  1  0  0  0  0
 13 44  1  0  0  0  0
 14 15  1  0  0  0  0
 14 28  2  0  0  0  0
 15 16  1  0  0  0  0
 15 18  1  0  0  0  0
 16 17  1  0  0  0  0
 16 45  1  0  0  0  0
 16 46  1  0  0  0  0
 17 21  1  0  0  0  0
 17 47  1  0  0  0  0
 17 48  1  0  0  0  0
 18 29  1  0  0  0  0
 18 49  1  1  0  0  0
 19 20  2  0  0  0  0
 20 18  1  0  0  0  0
 20 21  1  0  0  0  0
 21 22  1  0  0  0  0
 22 23  2  0  0  0  0
 22 24  1  0  0  0  0
 23 19  1  0  0  0  0
 24 25  1  0  0  0  0
 24 26  1  0  0  0  0
 24 27  1  0  0  0  0
 29 30  1  0  0  0  0
 29 50  1  0  0  0  0
 29 51  1  0  0  0  0
 30 31  2  0  0  0  0
 30 32  1  0  0  0  0
 32 33  1  0  0  0  0
 32 34  1  0  0  0  0
 33 52  1  0  0  0  0
 33 53  1  0  0  0  0
 33 54  1  0  0  0  0
 34 55  1  0  0  0  0
 34 56  1  0  0  0  0
 34 57  1  0  0  0  0
M  CHG  1  13   1
M  END
>  <Mean(IC50 fixed2)>
189.9

>  <First(BindingDB Ligand Name)>
CHEMBL556979

>  <Concatenate(Target Name Assigned by Curator or DataSource)>
Dipeptidyl Peptidase IV (DPP-IV), Dipeptidyl Peptidase IV (DPP-IV)

>  <First(Target Source Organism According to Curator or DataSource)>
Homo sapiens

>  <First(Curation/DataSource)>
ChEMBL

>  <First(Article DOI)>
10.1021/jm070330v

>  <Mean(PMID)>
18201067

>  <First(Authors)>
Kim, D; Kowalchick, JE; Brockunier, LL; Parmee, ER; Eiermann, GJ; Fisher, MH; He, H; Leiting, B; Lyons, K; Scapin, G; Patel, SB; Petrov, A; Pryor, KD; Roy, RS; Wu, JK; Zhang, X; Wyvratt, MJ; Zhang, BB; Zhu, L; Thornberry, NA; Weber, AE

>  <First(Institution)>
Merck Research Laboratories<span class=m1fontSize>Curated by</span> <a href=http://www.ebi.ac.uk/chembl/>ChEMBL</a>

>  <First(Link to Ligand in BindingDB)>
http://www.bindingdb.org/bind/chemsearch/marvin/MolStructure.jsp?monomerid=50232507

>  <First(Link to Ligand-Target Pair in BindingDB)>
http://www.bindingdb.org/jsp/dbsearch/PrimarySearch_ki.jsp?energyterm=kJ/mole&tag=r21&monomerid=50232507&enzyme=Dipeptidyl+Peptidase+IV+%28DPP-IV%29&column=ki&startPg=0&Increment=50&submit=Search

>  <Mean(PubChem CID)>
44445050

>  <Mean(PubChem SID)>
104055519

>  <First(ZINC ID of Ligand)>
ZINC28967874

>  <Concatenate*(UniProt (SwissProt) Entry Name of Target Chain)>
DPP4_HUMAN, DPP4_HUMAN

>  <Mean(Number of Protein Chains in Target (>1 implies a multichain complex))>
1

>  <Median(pIC50)>
8.553

>  <Journal>
JMedChem2008

>  <Activity Classes>
8.553

>  <Conformer_cresset>
1

>  <Similarity_cresset>
0.900

>  <Favorite_cresset>
false

>  <Activity (Median(pIC50))_cresset>
8.55

>  <LE (Median(pIC50))_cresset>
0.352

>  <LipE (Median(pIC50))_cresset>
5.7

>  <Tags_cresset>
training

>  <Confs_cresset>
9

>  <Conf#_cresset>
1

>  <Alns_cresset>
9

>  <MW_cresset>
493.4

>  <#Atoms_cresset>
34

>  <SlogP_cresset>
2.8

>  <TPSA_cresset>
99

>  <Flexibility_cresset>
7.1

>  <#RB_cresset>
9

>  <Rof5_cresset>
0

>  <Filename_cresset>
bindingdb_similar_1x70_processed.sdf

>  <Notes_cresset>
41b

>  <Selected Alignment_cresset>
true

>  <Alignment Cluster Centre_cresset>
true

>  <_cresset_fieldpoints>
-5      41.523117      48.659309      37.950085    -17.7455
-5      32.783760      45.853863      35.647137     -3.0441
-5      47.771664      49.697838      37.110672    -12.0612
-6      41.296329      55.050434      36.388439     10.9425
-6      35.581821      50.703308      33.273174      5.2509
-6      44.282398      54.983036      37.863747     10.0230
-6      42.043533      53.556023      32.835327     11.9448
-7      36.126442      49.016220      39.424969     -2.1922
-7      40.433434      48.437332      38.184914     -2.5446
-7      37.130741      49.350819      32.863613     -2.4085
-7      35.372856      50.362442      33.189941     -2.5514
-7      40.516270      54.556042      37.330223     -2.5660
-7      38.824192      54.312046      37.144875     -2.3813
-7      37.283657      50.218937      39.639202     -2.4338
-7      43.079105      49.599960      34.087532     -2.7812
-7      39.977661      54.347935      33.574329     -1.8891
-7      41.888577      53.413921      32.400711     -1.7076
-7      40.296051      50.300385      32.146309     -1.5202
-7      44.491352      54.140606      31.771122     -1.5733
-7      45.743046      48.603489      38.469036     -1.5028
-7      47.226707      48.671761      35.570984     -1.5215
-7      42.517139      51.052818      42.059883     -1.8027
-7      43.320518      48.207703      39.250774     -1.7080
-7      49.044823      54.169735      31.255066     -1.1113
-7      40.010769      47.893925      36.032642     -2.6077
-7      45.703003      54.250179      37.302540     -2.7944
-7      39.222397      55.178043      41.019169     -1.0845
-8      39.473209      51.267838      35.961258      4.9414
-8      43.431618      53.273178      34.845024      3.8040
-8      35.667503      49.721909      36.324116      7.2619
-8      43.621014      51.217197      38.247253      4.2555
-8      47.335457      52.585110      33.898991      5.6565
-8      36.965370      51.104179      36.618717      5.6167
-8      41.496243      52.538372      39.717125      2.4897
-8      42.665043      54.187885      40.073200      2.5783
-8      39.343616      52.206299      39.987541      2.5358

$$$$
