bindingdb_similar_1x70_processed:71
 OpenBabel04261912203D

 58 61  0  0  1  0  0  0  0  0999 V2000
   34.4446   49.2626   36.3144 C   0  0  0  0  0  0  0  0  0  0  0  0
   34.6245   50.5806   36.6666 C   0  0  0  0  0  0  0  0  0  0  0  0
   35.8931   51.1166   36.7238 C   0  0  0  0  0  0  0  0  0  0  0  0
   36.9929   50.3338   36.4305 C   0  0  0  0  0  0  0  0  0  0  0  0
   36.8077   49.0126   36.0834 C   0  0  0  0  0  0  0  0  0  0  0  0
   35.5411   48.4754   36.0220 C   0  0  0  0  0  0  0  0  0  0  0  0
   35.3778   47.1902   35.6753 F   0  0  0  0  0  0  0  0  0  0  0  0
   33.2065   48.7514   36.2551 F   0  0  0  0  0  0  0  0  0  0  0  0
   36.0430   52.4051   37.0649 F   0  0  0  0  0  0  0  0  0  0  0  0
   38.4050   50.9048   36.4679 C   0  0  0  0  0  0  0  0  0  0  0  0
   39.0747   51.0740   35.0846 C   0  0  2  0  0  0  0  0  0  0  0  0
   40.4565   51.7509   35.2058 C   0  0  0  0  0  0  0  0  0  0  0  0
   38.2165   51.9278   34.1920 N   0  3  0  0  0  0  0  0  0  0  0  0
   41.4882   50.9706   35.9984 C   0  0  0  0  0  0  0  0  0  0  0  0
   42.6719   51.6019   36.1701 N   0  0  0  0  0  0  0  0  0  0  0  0
   43.0244   52.8937   35.5215 C   0  0  0  0  0  0  0  0  0  0  0  0
   44.2465   52.6941   34.6008 C   0  0  0  0  0  0  0  0  0  0  0  0
   43.6836   50.9732   37.0531 C   0  0  1  0  0  0  0  0  0  0  0  0
   46.1784   50.6657   36.7961 N   0  0  0  0  0  0  0  0  0  0  0  0
   45.0467   51.1723   36.4199 C   0  0  0  0  0  0  0  0  0  0  0  0
   45.2822   51.9479   35.3295 N   0  0  0  0  0  0  0  0  0  0  0  0
   46.6146   51.8784   35.0455 C   0  0  0  0  0  0  0  0  0  0  0  0
   47.1522   51.1044   35.9395 N   0  0  0  0  0  0  0  0  0  0  0  0
   47.3440   52.5562   33.8978 C   0  0  0  0  0  0  0  0  0  0  0  0
   47.1674   53.9356   33.9125 F   0  0  0  0  0  0  0  0  0  0  0  0
   48.7127   52.3160   33.9489 F   0  0  0  0  0  0  0  0  0  0  0  0
   46.8880   52.0886   32.6699 F   0  0  0  0  0  0  0  0  0  0  0  0
   41.2367   49.8584   36.4428 O   0  0  0  0  0  0  0  0  0  0  0  0
   43.6205   51.4930   38.5085 C   0  0  1  0  0  0  0  0  0  0  0  0
   42.3138   51.1818   39.2317 C   0  0  0  0  0  0  0  0  0  0  0  0
   42.1974   50.0814   40.0544 C   0  0  0  0  0  0  0  0  0  0  0  0
   41.0167   49.8223   40.7110 C   0  0  0  0  0  0  0  0  0  0  0  0
   39.9363   50.6601   40.5417 C   0  0  0  0  0  0  0  0  0  0  0  0
   40.0432   51.7592   39.7182 C   0  0  0  0  0  0  0  0  0  0  0  0
   41.2289   52.0181   39.0704 C   0  0  0  0  0  0  0  0  0  0  0  0
   38.7840   50.4060   41.1758 F   0  0  0  0  0  0  0  0  0  0  0  0
   44.7382   50.9981   39.2692 O   0  0  0  0  0  0  0  0  0  0  0  0
   33.8318   51.1520   36.8798 H   0  0  0  0  0  0  0  0  0  0  0  0
   37.5997   48.4407   35.8694 H   0  0  0  0  0  0  0  0  0  0  0  0
   38.4105   51.9716   37.0177 H   0  0  0  0  0  0  0  0  0  0  0  0
   39.0720   50.1593   37.1307 H   0  0  0  0  0  0  0  0  0  0  0  0
   39.2097   49.9936   34.5801 H   0  0  0  0  0  0  0  0  0  0  0  0
   40.2730   52.8182   35.7230 H   0  0  0  0  0  0  0  0  0  0  0  0
   40.8668   51.8848   34.0860 H   0  0  0  0  0  0  0  0  0  0  0  0
   37.3945   51.5589   34.0696 H   0  0  0  0  0  0  0  0  0  0  0  0
   38.5817   52.0361   33.3656 H   0  0  0  0  0  0  0  0  0  0  0  0
   38.0883   52.7571   34.5445 H   0  0  0  0  0  0  0  0  0  0  0  0
   42.1807   53.4338   34.8667 H   0  0  0  0  0  0  0  0  0  0  0  0
   43.3441   53.6667   36.3810 H   0  0  0  0  0  0  0  0  0  0  0  0
   43.9150   52.0640   33.6349 H   0  0  0  0  0  0  0  0  0  0  0  0
   44.6603   53.7667   34.2589 H   0  0  0  0  0  0  0  0  0  0  0  0
   43.4834   49.7907   37.0800 H   0  0  0  0  0  0  0  0  0  0  0  0
   43.7513   52.6845   38.4779 H   0  0  0  0  0  0  0  0  0  0  0  0
   42.9799   49.4716   40.1808 H   0  0  0  0  0  0  0  0  0  0  0  0
   40.9423   49.0256   41.3102 H   0  0  0  0  0  0  0  0  0  0  0  0
   39.2598   52.3676   39.5909 H   0  0  0  0  0  0  0  0  0  0  0  0
   41.3045   52.8202   38.4779 H   0  0  0  0  0  0  0  0  0  0  0  0
   44.7175   49.9946   39.3413 H   0  0  0  0  0  0  0  0  0  0  0  0
  1  2  2  0  0  0  0
  1  8  1  0  0  0  0
  2  3  1  0  0  0  0
  2 38  1  0  0  0  0
  3  4  2  0  0  0  0
  3  9  1  0  0  0  0
  4  5  1  0  0  0  0
  4 10  1  0  0  0  0
  5  6  2  0  0  0  0
  5 39  1  0  0  0  0
  6  1  1  0  0  0  0
  6  7  1  0  0  0  0
 10 40  1  0  0  0  0
 10 41  1  0  0  0  0
 11 10  1  0  0  0  0
 11 12  1  0  0  0  0
 11 13  1  0  0  0  0
 11 42  1  6  0  0  0
 12 14  1  0  0  0  0
 12 43  1  0  0  0  0
 12 44  1  0  0  0  0
 13 45  1  0  0  0  0
 13 46  1  0  0  0  0
 13 47  1  0  0  0  0
 14 15  1  0  0  0  0
 14 28  2  0  0  0  0
 15 16  1  0  0  0  0
 15 18  1  0  0  0  0
 16 17  1  0  0  0  0
 16 48  1  0  0  0  0
 16 49  1  0  0  0  0
 17 21  1  0  0  0  0
 17 50  1  0  0  0  0
 17 51  1  0  0  0  0
 18 20  1  0  0  0  0
 18 29  1  0  0  0  0
 18 52  1  1  0  0  0
 19 20  2  0  0  0  0
 20 21  1  0  0  0  0
 21 22  1  0  0  0  0
 22 23  2  0  0  0  0
 22 24  1  0  0  0  0
 23 19  1  0  0  0  0
 24 25  1  0  0  0  0
 24 26  1  0  0  0  0
 24 27  1  0  0  0  0
 29 30  1  0  0  0  0
 29 37  1  0  0  0  0
 29 53  1  6  0  0  0
 30 31  2  0  0  0  0
 31 32  1  0  0  0  0
 31 54  1  0  0  0  0
 32 33  2  0  0  0  0
 32 55  1  0  0  0  0
 33 34  1  0  0  0  0
 33 36  1  0  0  0  0
 34 35  2  0  0  0  0
 34 56  1  0  0  0  0
 35 30  1  0  0  0  0
 35 57  1  0  0  0  0
 37 58  1  0  0  0  0
M  CHG  1  13   1
M  END
>  <Mean(IC50 fixed2)>
130.205

>  <First(BindingDB Ligand Name)>
CHEMBL536536

>  <Concatenate(Target Name Assigned by Curator or DataSource)>
Dipeptidyl Peptidase IV (DPP-IV), Dipeptidyl Peptidase IV (DPP-IV), Dipeptidyl Peptidase IV (DPP-IV), Dipeptidyl Peptidase IV (DPP-IV)

>  <First(Target Source Organism According to Curator or DataSource)>
Homo sapiens

>  <First(Curation/DataSource)>
ChEMBL

>  <First(Article DOI)>
10.1021/jm070330v

>  <Mean(PMID)>
18201067

>  <First(Authors)>
Kim, D; Kowalchick, JE; Brockunier, LL; Parmee, ER; Eiermann, GJ; Fisher, MH; He, H; Leiting, B; Lyons, K; Scapin, G; Patel, SB; Petrov, A; Pryor, KD; Roy, RS; Wu, JK; Zhang, X; Wyvratt, MJ; Zhang, BB; Zhu, L; Thornberry, NA; Weber, AE

>  <First(Institution)>
Merck Research Laboratories<span class=m1fontSize>Curated by</span> <a href=http://www.ebi.ac.uk/chembl/>ChEMBL</a>

>  <First(Link to Ligand in BindingDB)>
http://www.bindingdb.org/bind/chemsearch/marvin/MolStructure.jsp?monomerid=50232506

>  <First(Link to Ligand-Target Pair in BindingDB)>
http://www.bindingdb.org/jsp/dbsearch/PrimarySearch_ki.jsp?energyterm=kJ/mole&tag=r21&monomerid=50232506&enzyme=Dipeptidyl+Peptidase+IV+%28DPP-IV%29&column=ki&startPg=0&Increment=50&submit=Search

>  <Mean(PubChem CID)>
44445062

>  <Mean(PubChem SID)>
104055518

>  <First(ZINC ID of Ligand)>
ZINC28968030

>  <Concatenate*(UniProt (SwissProt) Entry Name of Target Chain)>
DPP4_HUMAN, DPP4_HUMAN, DPP4_HUMAN, DPP4_HUMAN

>  <Mean(Number of Protein Chains in Target (>1 implies a multichain complex))>
1

>  <Median(pIC50)>
9.392

>  <Journal>
JMedChem2008

>  <Activity Classes>
9.392

>  <Conformer_cresset>
1

>  <Similarity_cresset>
0.982

>  <Favorite_cresset>
false

>  <Activity (Median(pIC50))_cresset>
9.39

>  <LE (Median(pIC50))_cresset>
0.355

>  <LipE (Median(pIC50))_cresset>
4.5

>  <Tags_cresset>
training

>  <Confs_cresset>
4

>  <Conf#_cresset>
1

>  <Alns_cresset>
6

>  <MW_cresset>
532.4

>  <#Atoms_cresset>
37

>  <SlogP_cresset>
4.9

>  <TPSA_cresset>
98.9

>  <Flexibility_cresset>
7.9

>  <#RB_cresset>
9

>  <Rof5_cresset>
1

>  <Filename_cresset>
bindingdb_similar_1x70_processed.sdf

>  <Notes_cresset>
47b,d

>  <Selected Alignment_cresset>
true

>  <Alignment Cluster Centre_cresset>
true

>  <_cresset_fieldpoints>
-5      40.831913      48.510712      37.595119     -8.0495
-5      32.795017      45.952805      35.693272     -2.6023
-5      47.869762      50.250919      37.451694    -12.5040
-6      35.725376      50.530449      33.238781      5.7486
-6      41.114040      54.566761      36.829147     11.4175
-6      42.030960      53.388020      32.684967     12.2917
-6      44.351265      48.322983      38.987331      7.1392
-7      36.383823      49.084358      39.449841     -2.7465
-7      37.085526      49.387760      32.895344     -2.4205
-7      40.349548      48.247726      37.822254     -3.3587
-7      36.754974      52.582596      40.075218     -1.9518
-7      39.194042      54.240688      37.499981     -2.6892
-7      35.368561      50.398956      33.227394     -2.5489
-7      43.122231      49.609688      34.051826     -2.8153
-7      39.947807      54.381836      33.539677     -1.8977
-7      40.149963      50.307762      32.096653     -1.5205
-7      41.934078      53.296059      32.258678     -1.6958
-7      40.923172      54.749264      37.159836     -2.3928
-7      44.527397      54.117104      31.673677     -1.5853
-7      42.473736      54.972881      38.334511     -2.0212
-7      46.948826      51.963379      38.836895     -1.9280
-7      47.253292      48.713188      35.616547     -1.5249
-7      45.707504      54.300659      37.189190     -2.6889
-7      49.055771      54.149052      31.145418     -1.1107
-7      44.311810      47.936024      38.575844     -2.0294
-7      44.832958      51.328022      41.629345     -1.7591
-7      42.189949      52.720211      42.338333     -1.9247
-8      35.714207      49.795403      36.372513      7.2681
-8      41.111366      50.921246      39.887493      7.2062
-8      39.516518      51.325203      35.951569      4.9895
-8      44.022499      51.579742      37.458927      3.5306
-8      43.464394      53.286591      34.732895      3.8120
-8      47.365337      52.599987      33.830235      5.6576

$$$$
