@<TRIPOS>MOLECULE
bindingdb_similar_1x70_processed:39
 47 49 0 0 0
SMALL
GASTEIGER

@<TRIPOS>ATOM
      1 C          35.5398   48.4762   36.0201 C.ar    1  LIG1        0.1238
      2 C          34.4464   49.2625   36.3128 C.ar    1  LIG1       -0.0237
      3 C          34.6244   50.5796   36.6660 C.ar    1  LIG1       -0.0235
      4 C          35.8930   51.1164   36.7229 C.ar    1  LIG1        0.1269
      5 C          36.9923   50.3333   36.4276 C.ar    1  LIG1       -0.0042
      6 C          36.8078   49.0130   36.0817 C.ar    1  LIG1       -0.0204
      7 F          35.3771   47.1910   35.6727 F       1  LIG1       -0.2055
      8 F          36.0442   52.4044   37.0653 F       1  LIG1       -0.2052
      9 C          38.4036   50.9070   36.4663 C.3     1  LIG1        0.0187
     10 C          39.0766   51.0751   35.0853 C.3     1  LIG1       -0.0118
     11 C          40.4566   51.7544   35.2039 C.3     1  LIG1        0.0673
     12 C          41.4848   50.9711   35.9959 C.2     1  LIG1        0.2216
     13 N          38.2192   51.9275   34.1954 N.4     1  LIG1        0.2213
     14 O          41.2353   49.8585   36.4402 O.2     1  LIG1       -0.2754
     15 C          43.6802   50.9722   37.0461 C.3     1  LIG1        0.0831
     16 C          43.0246   52.8945   35.5265 C.3     1  LIG1        0.0334
     17 C          44.2441   52.6918   34.6017 C.3     1  LIG1        0.0422
     18 N          42.6668   51.6027   36.1707 N.am    1  LIG1       -0.2898
     19 C          45.0462   51.1733   36.4233 C.ar    1  LIG1        0.1541
     20 C          46.6138   51.8782   35.0455 C.ar    1  LIG1        0.2377
     21 N          45.2816   51.9482   35.3316 N.ar    1  LIG1       -0.3046
     22 N          46.1784   50.6653   36.7971 N.ar    1  LIG1       -0.1321
     23 N          47.1517   51.1036   35.9387 N.ar    1  LIG1       -0.1250
     24 C          47.3430   52.5560   33.8972 C.3     1  LIG1        0.4524
     25 F          47.1663   53.9354   33.9111 F       1  LIG1       -0.1632
     26 F          46.8874   52.0884   32.6690 F       1  LIG1       -0.1632
     27 F          48.7121   52.3168   33.9474 F       1  LIG1       -0.1632
     28 C          43.6048   51.5010   38.4890 C.3     1  LIG1       -0.0393
     29 H          33.5248   48.8765   36.2686 H       1  LIG1        0.0647
     30 H          33.8322   51.1509   36.8808 H       1  LIG1        0.0647
     31 H          37.5995   48.4401   35.8695 H       1  LIG1        0.0650
     32 H          38.4113   51.9711   37.0212 H       1  LIG1        0.0369
     33 H          39.0749   50.1599   37.1208 H       1  LIG1        0.0369
     34 H          39.2058   49.9979   34.5736 H       1  LIG1        0.0858
     35 H          40.2718   52.8197   35.7248 H       1  LIG1        0.0414
     36 H          40.8688   51.8928   34.0852 H       1  LIG1        0.0414
     37 H          37.4001   51.5491   34.0715 H       1  LIG1        0.1997
     38 H          38.5928   52.0369   33.3712 H       1  LIG1        0.1997
     39 H          38.0893   52.7546   34.5571 H       1  LIG1        0.1997
     40 H          43.4727   49.7913   37.0854 H       1  LIG1        0.0579
     41 H          42.1800   53.4485   34.8838 H       1  LIG1        0.0482
     42 H          43.3567   53.6504   36.3964 H       1  LIG1        0.0482
     43 H          43.9123   52.0659   33.6329 H       1  LIG1        0.0508
     44 H          44.6611   53.7639   34.2628 H       1  LIG1        0.0508
     45 H          42.4816   51.3980   38.8993 H       1  LIG1        0.0252
     46 H          44.3406   50.8562   39.1840 H       1  LIG1        0.0252
     47 H          43.9394   52.6527   38.5238 H       1  LIG1        0.0252
@<TRIPOS>BOND
     1     1     2   ar
     2     1     6   ar
     3     1     7    1
     4     2     3   ar
     5     2    29    1
     6     3     4   ar
     7     3    30    1
     8     4     5   ar
     9     4     8    1
    10     5     6   ar
    11     5     9    1
    12     6    31    1
    13     9    32    1
    14     9    33    1
    15    10     9    1
    16    10    11    1
    17    10    13    1
    18    10    34    1
    19    11    12    1
    20    11    35    1
    21    11    36    1
    22    12    14    2
    23    12    18   am
    24    13    37    1
    25    13    38    1
    26    13    39    1
    27    15    18    1
    28    15    19    1
    29    15    28    1
    30    15    40    1
    31    16    17    1
    32    16    41    1
    33    16    42    1
    34    17    21    1
    35    17    43    1
    36    17    44    1
    37    18    16    1
    38    20    23   ar
    39    20    24    1
    40    21    19   ar
    41    21    20   ar
    42    22    19   ar
    43    22    23   ar
    44    24    25    1
    45    24    26    1
    46    24    27    1
    47    28    45    1
    48    28    46    1
    49    28    47    1
