bindingdb_similar_1x70_processed:64
 OpenBabel04261912203D

 54 57  0  0  1  0  0  0  0  0999 V2000
   34.4919   49.2442   36.4140 C   0  0  0  0  0  0  0  0  0  0  0  0
   34.6816   50.5592   36.7723 C   0  0  0  0  0  0  0  0  0  0  0  0
   35.9485   51.1019   36.7737 C   0  0  0  0  0  0  0  0  0  0  0  0
   37.0366   50.3291   36.4172 C   0  0  0  0  0  0  0  0  0  0  0  0
   36.8420   49.0112   36.0634 C   0  0  0  0  0  0  0  0  0  0  0  0
   35.5767   48.4671   36.0583 C   0  0  0  0  0  0  0  0  0  0  0  0
   38.4460   50.9078   36.4007 C   0  0  0  0  0  0  0  0  0  0  0  0
   39.0628   51.0928   34.9954 C   0  0  2  0  0  0  0  0  0  0  0  0
   40.4699   51.7195   35.0890 C   0  0  0  0  0  0  0  0  0  0  0  0
   38.2012   51.9948   34.1544 N   0  3  0  0  0  0  0  0  0  0  0  0
   41.4856   50.8730   35.8335 C   0  0  0  0  0  0  0  0  0  0  0  0
   42.6627   51.4877   36.0902 N   0  0  0  0  0  0  0  0  0  0  0  0
   41.2236   49.7277   36.1769 O   0  0  0  0  0  0  0  0  0  0  0  0
   43.0484   52.8090   35.5207 C   0  0  0  0  0  0  0  0  0  0  0  0
   44.3529   52.7067   34.6992 C   0  0  0  0  0  0  0  0  0  0  0  0
   43.6248   50.8092   36.9907 C   0  0  1  0  0  0  0  0  0  0  0  0
   45.0215   51.0078   36.4402 C   0  0  0  0  0  0  0  0  0  0  0  0
   45.3011   51.8685   35.4391 N   0  0  0  0  0  0  0  0  0  0  0  0
   46.6346   51.8099   35.2061 N   0  0  0  0  0  0  0  0  0  0  0  0
   47.1052   50.9394   36.0552 C   0  0  0  0  0  0  0  0  0  0  0  0
   46.1347   50.4211   36.8371 N   0  0  0  0  0  0  0  0  0  0  0  0
   36.1080   52.3865   37.1236 F   0  0  0  0  0  0  0  0  0  0  0  0
   33.2551   48.7261   36.4114 F   0  0  0  0  0  0  0  0  0  0  0  0
   35.4036   47.1851   35.7052 F   0  0  0  0  0  0  0  0  0  0  0  0
   48.5673   50.5593   36.1608 C   0  0  0  0  0  0  0  0  0  0  0  0
   48.7185   49.1816   36.2649 F   0  0  0  0  0  0  0  0  0  0  0  0
   49.2934   50.9790   35.0512 F   0  0  0  0  0  0  0  0  0  0  0  0
   49.1500   51.1323   37.2853 F   0  0  0  0  0  0  0  0  0  0  0  0
   43.5352   51.3179   38.4435 C   0  0  0  0  0  0  0  0  0  0  0  0
   42.2149   51.2206   39.0778 N   0  0  0  0  0  0  0  0  0  0  0  0
   41.9061   50.3693   40.0871 N   0  0  0  0  0  0  0  0  0  0  0  0
   40.6683   50.5612   40.4659 C   0  0  0  0  0  0  0  0  0  0  0  0
   40.1000   51.5793   39.6940 C   0  0  0  0  0  0  0  0  0  0  0  0
   41.0851   51.9432   38.8685 C   0  0  0  0  0  0  0  0  0  0  0  0
   39.1438   50.0221   34.4597 H   0  0  0  0  0  0  0  0  0  0  0  0
   43.3970   49.6312   36.9937 H   0  0  0  0  0  0  0  0  0  0  0  0
   33.8976   51.1233   37.0310 H   0  0  0  0  0  0  0  0  0  0  0  0
   37.6255   48.4463   35.8045 H   0  0  0  0  0  0  0  0  0  0  0  0
   39.1426   50.1587   37.0269 H   0  0  0  0  0  0  0  0  0  0  0  0
   38.4714   51.9683   36.9618 H   0  0  0  0  0  0  0  0  0  0  0  0
   40.3371   52.7742   35.6462 H   0  0  0  0  0  0  0  0  0  0  0  0
   40.8528   51.8754   33.9621 H   0  0  0  0  0  0  0  0  0  0  0  0
   37.3580   51.6669   34.0593 H   0  0  0  0  0  0  0  0  0  0  0  0
   38.5317   52.1037   33.3132 H   0  0  0  0  0  0  0  0  0  0  0  0
   38.1212   52.8251   34.5187 H   0  0  0  0  0  0  0  0  0  0  0  0
   42.2545   53.3430   34.8013 H   0  0  0  0  0  0  0  0  0  0  0  0
   43.2548   53.5554   36.4366 H   0  0  0  0  0  0  0  0  0  0  0  0
   44.1182   52.1913   33.6412 H   0  0  0  0  0  0  0  0  0  0  0  0
   44.8134   53.8007   34.5225 H   0  0  0  0  0  0  0  0  0  0  0  0
   44.3067   50.6772   39.1025 H   0  0  0  0  0  0  0  0  0  0  0  0
   43.8847   52.4648   38.4793 H   0  0  0  0  0  0  0  0  0  0  0  0
   40.2022   50.0595   41.1946 H   0  0  0  0  0  0  0  0  0  0  0  0
   39.1727   51.9498   39.7483 H   0  0  0  0  0  0  0  0  0  0  0  0
   41.0006   52.6628   38.1792 H   0  0  0  0  0  0  0  0  0  0  0  0
  1  2  2  0  0  0  0
  1 23  1  0  0  0  0
  2  3  1  0  0  0  0
  2 37  1  0  0  0  0
  3  4  2  0  0  0  0
  3 22  1  0  0  0  0
  4  5  1  0  0  0  0
  4  7  1  0  0  0  0
  5  6  2  0  0  0  0
  5 38  1  0  0  0  0
  6  1  1  0  0  0  0
  6 24  1  0  0  0  0
  7 39  1  0  0  0  0
  7 40  1  0  0  0  0
  8  7  1  0  0  0  0
  8  9  1  0  0  0  0
  8 10  1  0  0  0  0
  8 35  1  6  0  0  0
  9 11  1  0  0  0  0
  9 41  1  0  0  0  0
  9 42  1  0  0  0  0
 10 43  1  0  0  0  0
 10 44  1  0  0  0  0
 10 45  1  0  0  0  0
 11 12  1  0  0  0  0
 11 13  2  0  0  0  0
 12 14  1  0  0  0  0
 12 16  1  0  0  0  0
 14 15  1  0  0  0  0
 14 46  1  0  0  0  0
 14 47  1  0  0  0  0
 15 18  1  0  0  0  0
 15 48  1  0  0  0  0
 15 49  1  0  0  0  0
 16 29  1  0  0  0  0
 16 36  1  6  0  0  0
 17 16  1  0  0  0  0
 17 18  1  0  0  0  0
 18 19  1  0  0  0  0
 19 20  2  0  0  0  0
 20 21  1  0  0  0  0
 20 25  1  0  0  0  0
 21 17  2  0  0  0  0
 25 26  1  0  0  0  0
 25 27  1  0  0  0  0
 25 28  1  0  0  0  0
 29 30  1  0  0  0  0
 29 50  1  0  0  0  0
 29 51  1  0  0  0  0
 30 31  1  0  0  0  0
 31 32  2  0  0  0  0
 32 33  1  0  0  0  0
 32 52  1  0  0  0  0
 33 34  2  0  0  0  0
 33 53  1  0  0  0  0
 34 30  1  0  0  0  0
 34 54  1  0  0  0  0
M  CHG  1  10   1
M  END
>  <Mean(IC50 fixed2)>
4

>  <First(BindingDB Ligand Name)>
CHEMBL250351

>  <Concatenate(Target Name Assigned by Curator or DataSource)>
Dipeptidyl Peptidase IV (DPP-IV)

>  <First(Target Source Organism According to Curator or DataSource)>
Homo sapiens

>  <First(Curation/DataSource)>
ChEMBL

>  <First(Article DOI)>
10.1016/j.bmcl.2007.07.100

>  <Mean(PMID)>
17827003

>  <First(Authors)>
Kowalchick, JE; Leiting, B; Pryor, KD; Marsilio, F; Wu, JK; He, H; Lyons, KA; Eiermann, GJ; Petrov, A; Scapin, G; Patel, RA; Thornberry, NA; Weber, AE; Kim, D

>  <First(Institution)>
Merck Research Laboratories<span class=m1fontSize>Curated by</span> <a href=http://www.ebi.ac.uk/chembl/>ChEMBL</a>

>  <First(Link to Ligand in BindingDB)>
http://www.bindingdb.org/bind/chemsearch/marvin/MolStructure.jsp?monomerid=50221442

>  <First(Link to Ligand-Target Pair in BindingDB)>
http://www.bindingdb.org/jsp/dbsearch/PrimarySearch_ki.jsp?energyterm=kJ/mole&tag=r21&monomerid=50221442&enzyme=Dipeptidyl+Peptidase+IV+%28DPP-IV%29&column=ki&startPg=0&Increment=50&submit=Search

>  <Mean(PubChem CID)>
44444390

>  <Mean(PubChem SID)>
104094099

>  <First(ZINC ID of Ligand)>
ZINC28959161

>  <Concatenate*(UniProt (SwissProt) Entry Name of Target Chain)>
DPP4_HUMAN

>  <Mean(Number of Protein Chains in Target (>1 implies a multichain complex))>
1

>  <Median(pIC50)>
8.39794000867204

>  <Journal>
Kow BioorgMedChemLett2007

>  <Activity Classes>
8.39794000867204

>  <Conformer_cresset>
54

>  <Similarity_cresset>
0.833

>  <Favorite_cresset>
false

>  <Activity (Median(pIC50))_cresset>
8.4

>  <LE (Median(pIC50))_cresset>
0.346

>  <LipE (Median(pIC50))_cresset>
5.1

>  <Tags_cresset>
training

>  <Confs_cresset>
170

>  <Conf#_cresset>
54

>  <Alns_cresset>
10

>  <MW_cresset>
488.4

>  <#Atoms_cresset>
34

>  <SlogP_cresset>
3.3

>  <TPSA_cresset>
96.5

>  <Flexibility_cresset>
6.9

>  <#RB_cresset>
8

>  <Rof5_cresset>
0

>  <Filename_cresset>
bindingdb_similar_1x70_processed.sdf

>  <Notes_cresset>
36
mixture of diastereoisomers

>  <Selected Alignment_cresset>
true

>  <Alignment Cluster Centre_cresset>
true

>  <_cresset_fieldpoints>
-5      46.374943      48.738228      38.048664     -3.5807
-5      51.022316      48.445087      34.442211     -1.5114
-5      32.837528      45.926323      35.831039     -2.7498
-5      49.708084      48.599651      39.053589     -1.7771
-5      41.208008      48.913475      37.928848    -10.6700
-6      35.535313      50.797558      33.380207      5.6701
-6      41.115597      54.489536      36.797268     12.4064
-6      42.032013      53.461529      32.676586     11.5725
-6      42.849728      55.485775      34.672340     11.1679
-6      40.522400      54.437206      34.008141     11.8146
-7      41.206581      48.528339      38.055237     -3.0379
-7      36.876717      49.531769      32.886185     -2.4438
-7      39.977448      50.356224      31.954533     -1.4938
-7      39.995052      54.424122      33.536201     -1.8649
-7      42.078876      53.227283      32.200836     -1.5833
-7      39.146206      54.288082      37.270477     -2.5141
-7      43.186939      49.696896      33.834217     -2.6318
-7      40.882957      54.779236      37.021034     -2.1568
-7      43.205692      55.985909      34.968681     -1.1443
-7      45.862705      53.975483      37.344299     -2.4882
-7      42.650677      54.783684      38.535484     -1.7662
-7      37.331032      49.628353      39.552280     -2.7348
-7      35.331512      50.437206      33.297745     -2.5693
-7      46.376083      50.810635      32.932873     -2.0090
-7      52.044926      49.645096      36.445278     -1.1033
-7      46.606201      52.253754      39.126137     -2.0872
-7      46.592705      49.390297      38.986752     -2.2801
-7      43.396732      52.222553      41.486908     -1.7302
-7      39.969536      47.855309      35.883408     -2.6321
-8      35.762779      49.784397      36.417301      7.2660
-8      40.139042      51.521908      39.660755      3.9869
-8      39.555183      51.305420      35.863266      5.0156
-8      44.207932      51.101021      37.653988      3.9948
-8      43.530033      53.284924      34.817558      3.7547
-8      48.663033      50.531563      36.173897      5.5976
-8      37.065990      51.170189      36.648930      5.6273

$$$$
