@<TRIPOS>MOLECULE
bindingdb_similar_1x70_processed:35
 47 49 0 0 0
SMALL
GASTEIGER

@<TRIPOS>ATOM
      1 C          34.8106   48.8367   36.4585 C.ar    1  LIG1       -0.0612
      2 C          34.8217   50.1590   36.8351 C.ar    1  LIG1       -0.0499
      3 C          35.9981   50.8791   36.8604 C.ar    1  LIG1        0.0582
      4 C          37.1811   50.2576   36.4964 C.ar    1  LIG1       -0.0304
      5 C          37.1618   48.9296   36.1253 C.ar    1  LIG1       -0.0578
      6 C          35.9851   48.2190   36.1035 C.ar    1  LIG1       -0.0615
      7 C          38.5432   50.9479   36.4777 C.3     1  LIG1        0.0164
      8 C          39.2254   51.0318   35.0938 C.3     1  LIG1       -0.0119
      9 N          38.3742   51.8366   34.1525 N.4     1  LIG1        0.2213
     10 C          40.6094   51.7056   35.2012 C.3     1  LIG1        0.0673
     11 C          41.6225   50.9058   35.9991 C.2     1  LIG1        0.2214
     12 O          41.3505   49.7964   36.4387 O.2     1  LIG1       -0.2754
     13 N          42.8159   51.5149   36.1797 N.am    1  LIG1       -0.2923
     14 C          43.1898   52.8240   35.5844 C.3     1  LIG1        0.0332
     15 C          44.4111   52.6535   34.6540 C.3     1  LIG1        0.0422
     16 C          43.8319   50.8561   37.0284 C.3     1  LIG1        0.0746
     17 C          45.2007   51.0589   36.4114 C.ar    1  LIG1        0.1512
     18 N          45.4444   51.8752   35.3529 N.ar    1  LIG1       -0.3048
     19 C          46.7774   51.8091   35.0687 C.ar    1  LIG1        0.2376
     20 N          47.3071   50.9946   35.9311 N.ar    1  LIG1       -0.1250
     21 N          46.3279   50.5279   36.7678 N.ar    1  LIG1       -0.1324
     22 C          47.5161   52.5326   33.9554 C.3     1  LIG1        0.4524
     23 F          47.0311   52.1616   32.7056 F       1  LIG1       -0.1632
     24 F          47.3875   53.9134   34.0616 F       1  LIG1       -0.1632
     25 F          48.8763   52.2433   33.9727 F       1  LIG1       -0.1632
     26 C          35.9280   52.3382   37.2945 C.3     1  LIG1        0.4177
     27 F          36.7528   52.5761   38.3882 F       1  LIG1       -0.1659
     28 F          36.3343   53.1812   36.2663 F       1  LIG1       -0.1659
     29 F          34.6491   52.7426   37.6673 F       1  LIG1       -0.1659
     30 H          39.3597   49.9246   34.6506 H       1  LIG1        0.0858
     31 H          33.9507   48.3262   36.4442 H       1  LIG1        0.0618
     32 H          33.9633   50.6012   37.0940 H       1  LIG1        0.0623
     33 H          38.0154   48.4778   35.8658 H       1  LIG1        0.0620
     34 H          35.9839   47.2571   35.8300 H       1  LIG1        0.0618
     35 H          38.4743   52.0642   36.9057 H       1  LIG1        0.0368
     36 H          39.2574   50.3287   37.2162 H       1  LIG1        0.0368
     37 H          37.5430   51.4779   34.0613 H       1  LIG1        0.1997
     38 H          38.7326   51.8830   33.3173 H       1  LIG1        0.1997
     39 H          38.2611   52.6922   34.4417 H       1  LIG1        0.1997
     40 H          40.4348   52.7740   35.7189 H       1  LIG1        0.0414
     41 H          41.0276   51.8385   34.0840 H       1  LIG1        0.0414
     42 H          42.3506   53.4042   34.9580 H       1  LIG1        0.0482
     43 H          43.5224   53.5387   36.4890 H       1  LIG1        0.0482
     44 H          44.0760   52.0617   33.6653 H       1  LIG1        0.0508
     45 H          44.8328   53.7346   34.3503 H       1  LIG1        0.0508
     46 H          43.6101   49.6797   37.1091 H       1  LIG1        0.0545
     47 H          43.8126   51.3421   38.1253 H       1  LIG1        0.0545
@<TRIPOS>BOND
     1     1     2   ar
     2     1    31    1
     3     2     3   ar
     4     2    32    1
     5     3     4   ar
     6     3    26    1
     7     4     5   ar
     8     4     7    1
     9     5     6   ar
    10     5    33    1
    11     6     1   ar
    12     6    34    1
    13     7    35    1
    14     7    36    1
    15     8     7    1
    16     8     9    1
    17     8    10    1
    18     8    30    1
    19     9    37    1
    20     9    38    1
    21     9    39    1
    22    10    11    1
    23    10    40    1
    24    10    41    1
    25    11    12    2
    26    11    13   am
    27    13    14    1
    28    13    16    1
    29    14    15    1
    30    14    42    1
    31    14    43    1
    32    15    18    1
    33    15    44    1
    34    15    45    1
    35    16    46    1
    36    16    47    1
    37    17    16    1
    38    17    18   ar
    39    18    19   ar
    40    19    20   ar
    41    19    22    1
    42    20    21   ar
    43    21    17   ar
    44    22    23    1
    45    22    24    1
    46    22    25    1
    47    26    27    1
    48    26    28    1
    49    26    29    1
