@<TRIPOS>MOLECULE
bindingdb_similar_1x70_processed:27
 44 46 0 0 0
SMALL
GASTEIGER

@<TRIPOS>ATOM
      1 C          35.5407   48.4754   36.0199 C.ar    1  LIG1        0.1588
      2 C          34.4447   49.2629   36.3128 C.ar    1  LIG1        0.1611
      3 C          34.6248   50.5805   36.6665 C.ar    1  LIG1        0.0119
      4 C          35.8932   51.1164   36.7230 C.ar    1  LIG1        0.1296
      5 C          36.9923   50.3335   36.4278 C.ar    1  LIG1       -0.0040
      6 C          36.8075   49.0122   36.0818 C.ar    1  LIG1       -0.0175
      7 C          38.4037   50.9068   36.4672 C.3     1  LIG1        0.0187
      8 C          39.0771   51.0746   35.0858 C.3     1  LIG1       -0.0118
      9 C          40.4564   51.7548   35.2040 C.3     1  LIG1        0.0673
     10 C          41.4843   50.9704   35.9958 C.2     1  LIG1        0.2214
     11 N          38.2196   51.9269   34.1952 N.4     1  LIG1        0.2213
     12 O          41.2352   49.8582   36.4403 O.2     1  LIG1       -0.2754
     13 C          43.6804   50.9772   37.0454 C.3     1  LIG1        0.0746
     14 C          43.0252   52.8935   35.5286 C.3     1  LIG1        0.0332
     15 C          44.2439   52.6919   34.6025 C.3     1  LIG1        0.0422
     16 N          42.6661   51.6012   36.1691 N.am    1  LIG1       -0.2923
     17 C          45.0465   51.1726   36.4224 C.ar    1  LIG1        0.1512
     18 C          46.6139   51.8783   35.0453 C.ar    1  LIG1        0.2376
     19 N          45.2818   51.9479   35.3313 N.ar    1  LIG1       -0.3048
     20 N          46.1783   50.6651   36.7970 N.ar    1  LIG1       -0.1324
     21 N          47.1518   51.1036   35.9386 N.ar    1  LIG1       -0.1250
     22 C          47.3431   52.5560   33.8972 C.3     1  LIG1        0.4524
     23 F          48.7120   52.3167   33.9475 F       1  LIG1       -0.1632
     24 F          46.8875   52.0885   32.6689 F       1  LIG1       -0.1632
     25 F          47.1665   53.9354   33.9113 F       1  LIG1       -0.1632
     26 F          35.3773   47.1905   35.6725 F       1  LIG1       -0.2025
     27 F          36.0442   52.4043   37.0653 F       1  LIG1       -0.2051
     28 F          33.2064   48.7522   36.2534 F       1  LIG1       -0.2024
     29 H          33.8325   51.1517   36.8811 H       1  LIG1        0.0676
     30 H          37.5996   48.4398   35.8689 H       1  LIG1        0.0651
     31 H          38.4108   51.9721   37.0193 H       1  LIG1        0.0369
     32 H          39.0741   50.1602   37.1227 H       1  LIG1        0.0369
     33 H          39.2095   49.9963   34.5757 H       1  LIG1        0.0858
     34 H          40.2714   52.8205   35.7232 H       1  LIG1        0.0414
     35 H          40.8696   51.8905   34.0852 H       1  LIG1        0.0414
     36 H          37.4070   51.5411   34.0540 H       1  LIG1        0.1997
     37 H          38.6007   52.0539   33.3777 H       1  LIG1        0.1997
     38 H          38.0728   52.7473   34.5639 H       1  LIG1        0.1997
     39 H          43.4685   49.8020   37.1599 H       1  LIG1        0.0545
     40 H          43.6509   51.4916   38.1286 H       1  LIG1        0.0545
     41 H          42.1817   53.4467   34.8839 H       1  LIG1        0.0482
     42 H          43.3565   53.6467   36.4014 H       1  LIG1        0.0482
     43 H          43.9123   52.0658   33.6338 H       1  LIG1        0.0508
     44 H          44.6609   53.7639   34.2626 H       1  LIG1        0.0508
@<TRIPOS>BOND
     1     1     2   ar
     2     1     6   ar
     3     1    26    1
     4     2     3   ar
     5     2    28    1
     6     3     4   ar
     7     3    29    1
     8     4     5   ar
     9     4    27    1
    10     5     6   ar
    11     5     7    1
    12     6    30    1
    13     7    31    1
    14     7    32    1
    15     8     7    1
    16     8     9    1
    17     8    11    1
    18     8    33    1
    19     9    10    1
    20     9    34    1
    21     9    35    1
    22    10    12    2
    23    10    16   am
    24    11    36    1
    25    11    37    1
    26    11    38    1
    27    13    16    1
    28    13    17    1
    29    13    39    1
    30    13    40    1
    31    14    15    1
    32    14    41    1
    33    14    42    1
    34    15    19    1
    35    15    43    1
    36    15    44    1
    37    16    14    1
    38    18    21   ar
    39    18    22    1
    40    19    17   ar
    41    19    18   ar
    42    20    17   ar
    43    20    21   ar
    44    22    23    1
    45    22    24    1
    46    22    25    1
