bindingdb_similar_1x70_processed:19
 OpenBabel04261912203D

 48 51  0  0  1  0  0  0  0  0999 V2000
   34.4444   49.2630   36.3132 C   0  0  0  0  0  0  0  0  0  0  0  0
   34.6245   50.5808   36.6663 C   0  0  0  0  0  0  0  0  0  0  0  0
   35.8929   51.1167   36.7228 C   0  0  0  0  0  0  0  0  0  0  0  0
   36.9922   50.3335   36.4285 C   0  0  0  0  0  0  0  0  0  0  0  0
   36.8074   49.0122   36.0822 C   0  0  0  0  0  0  0  0  0  0  0  0
   35.5406   48.4754   36.0206 C   0  0  0  0  0  0  0  0  0  0  0  0
   38.4042   50.9061   36.4673 C   0  0  0  0  0  0  0  0  0  0  0  0
   39.0761   51.0732   35.0843 C   0  0  1  0  0  0  0  0  0  0  0  0
   38.2183   51.9272   34.1940 N   0  3  0  0  0  0  0  0  0  0  0  0
   40.4561   51.7539   35.2042 C   0  0  0  0  0  0  0  0  0  0  0  0
   41.4842   50.9695   35.9960 C   0  0  0  0  0  0  0  0  0  0  0  0
   41.2348   49.8573   36.4404 O   0  0  0  0  0  0  0  0  0  0  0  0
   42.6655   51.6009   36.1689 N   0  0  0  0  0  0  0  0  0  0  0  0
   43.0258   52.8932   35.5297 C   0  0  0  0  0  0  0  0  0  0  0  0
   44.2450   52.6955   34.6031 C   0  0  0  0  0  0  0  0  0  0  0  0
   43.6814   50.9796   37.0438 C   0  0  0  0  0  0  0  0  0  0  0  0
   45.0471   51.1727   36.4197 C   0  0  0  0  0  0  0  0  0  0  0  0
   45.2821   51.9475   35.3283 N   0  0  0  0  0  0  0  0  0  0  0  0
   46.6133   51.8761   35.0443 C   0  0  0  0  0  0  0  0  0  0  0  0
   47.1522   51.1030   35.9377 N   0  0  0  0  0  0  0  0  0  0  0  0
   46.1784   50.6647   36.7963 N   0  0  0  0  0  0  0  0  0  0  0  0
   35.3770   47.1904   35.6736 F   0  0  0  0  0  0  0  0  0  0  0  0
   36.0437   52.4047   37.0646 F   0  0  0  0  0  0  0  0  0  0  0  0
   47.3444   52.5583   33.9044 C   0  0  0  0  0  0  0  0  0  0  0  0
   33.2061   48.7522   36.2542 F   0  0  0  0  0  0  0  0  0  0  0  0
   48.7956   52.9758   34.1840 C   0  0  0  0  0  0  0  0  0  0  0  0
   48.5047   51.7836   33.2611 C   0  0  0  0  0  0  0  0  0  0  0  0
   33.8321   51.1521   36.8804 H   0  0  0  0  0  0  0  0  0  0  0  0
   37.5992   48.4399   35.8687 H   0  0  0  0  0  0  0  0  0  0  0  0
   38.4087   51.9725   37.0194 H   0  0  0  0  0  0  0  0  0  0  0  0
   39.0734   50.1583   37.1258 H   0  0  0  0  0  0  0  0  0  0  0  0
   39.2074   49.9940   34.5744 H   0  0  0  0  0  0  0  0  0  0  0  0
   37.4007   51.5539   34.0683 H   0  0  0  0  0  0  0  0  0  0  0  0
   38.5868   52.0388   33.3717 H   0  0  0  0  0  0  0  0  0  0  0  0
   38.0864   52.7523   34.5504 H   0  0  0  0  0  0  0  0  0  0  0  0
   40.2724   52.8197   35.7254 H   0  0  0  0  0  0  0  0  0  0  0  0
   40.8685   51.8927   34.0852 H   0  0  0  0  0  0  0  0  0  0  0  0
   42.1818   53.4476   34.8864 H   0  0  0  0  0  0  0  0  0  0  0  0
   43.3583   53.6443   36.4040 H   0  0  0  0  0  0  0  0  0  0  0  0
   43.9150   52.0729   33.6315 H   0  0  0  0  0  0  0  0  0  0  0  0
   44.6604   53.7707   34.2724 H   0  0  0  0  0  0  0  0  0  0  0  0
   43.4690   49.8043   37.1588 H   0  0  0  0  0  0  0  0  0  0  0  0
   43.6515   51.4941   38.1271 H   0  0  0  0  0  0  0  0  0  0  0  0
   46.7497   53.2854   33.1585 H   0  0  0  0  0  0  0  0  0  0  0  0
   49.1668   53.9742   33.6310 H   0  0  0  0  0  0  0  0  0  0  0  0
   49.2311   52.6833   35.2631 H   0  0  0  0  0  0  0  0  0  0  0  0
   48.6971   51.9868   32.0943 H   0  0  0  0  0  0  0  0  0  0  0  0
   48.7330   50.7030   33.7299 H   0  0  0  0  0  0  0  0  0  0  0  0
  1  2  2  0  0  0  0
  1 25  1  0  0  0  0
  2  3  1  0  0  0  0
  2 28  1  0  0  0  0
  3  4  2  0  0  0  0
  3 23  1  0  0  0  0
  4  5  1  0  0  0  0
  4  7  1  0  0  0  0
  5  6  2  0  0  0  0
  5 29  1  0  0  0  0
  6  1  1  0  0  0  0
  6 22  1  0  0  0  0
  7 30  1  0  0  0  0
  7 31  1  0  0  0  0
  8  7  1  0  0  0  0
  8  9  1  0  0  0  0
  8 10  1  0  0  0  0
  8 32  1  6  0  0  0
  9 33  1  0  0  0  0
  9 34  1  0  0  0  0
  9 35  1  0  0  0  0
 10 11  1  0  0  0  0
 10 36  1  0  0  0  0
 10 37  1  0  0  0  0
 11 12  2  0  0  0  0
 11 13  1  0  0  0  0
 13 14  1  0  0  0  0
 13 16  1  0  0  0  0
 14 15  1  0  0  0  0
 14 38  1  0  0  0  0
 14 39  1  0  0  0  0
 15 18  1  0  0  0  0
 15 40  1  0  0  0  0
 15 41  1  0  0  0  0
 16 42  1  0  0  0  0
 16 43  1  0  0  0  0
 17 16  1  0  0  0  0
 17 18  1  0  0  0  0
 18 19  1  0  0  0  0
 19 20  2  0  0  0  0
 19 24  1  0  0  0  0
 20 21  1  0  0  0  0
 21 17  2  0  0  0  0
 24 27  1  0  0  0  0
 24 44  1  0  0  0  0
 26 24  1  0  0  0  0
 26 45  1  0  0  0  0
 26 46  1  0  0  0  0
 27 26  1  0  0  0  0
 27 47  1  0  0  0  0
 27 48  1  0  0  0  0
M  CHG  1   9   1
M  END
>  <Mean(IC50 fixed2)>
30

>  <First(BindingDB Ligand Name)>
CHEMBL390239

>  <Concatenate(Target Name Assigned by Curator or DataSource)>
Dipeptidyl Peptidase IV (DPP-IV)

>  <First(Target Source Organism According to Curator or DataSource)>
Homo sapiens

>  <First(Curation/DataSource)>
ChEMBL

>  <First(Article DOI)>
10.1016/j.bmcl.2007.03.098

>  <Mean(PMID)>
17434732

>  <First(Authors)>
Kim, D; Kowalchick, JE; Edmondson, SD; Mastracchio, A; Xu, J; Eiermann, GJ; Leiting, B; Wu, JK; Pryor, KD; Patel, RA; He, H; Lyons, KA; Thornberry, NA; Weber, AE

>  <First(Institution)>
Merck Research Laboratories<span class=m1fontSize>Curated by</span> <a href=http://www.ebi.ac.uk/chembl/>ChEMBL</a>

>  <First(Link to Ligand in BindingDB)>
http://www.bindingdb.org/bind/chemsearch/marvin/MolStructure.jsp?monomerid=50210647

>  <First(Link to Ligand-Target Pair in BindingDB)>
http://www.bindingdb.org/jsp/dbsearch/PrimarySearch_ki.jsp?energyterm=kJ/mole&tag=r21&monomerid=50210647&enzyme=Dipeptidyl+Peptidase+IV+%28DPP-IV%29&column=ki&startPg=0&Increment=50&submit=Search

>  <Mean(PubChem CID)>
44431218

>  <Mean(PubChem SID)>
104087134

>  <First(ZINC ID of Ligand)>
ZINC28820855

>  <Concatenate*(UniProt (SwissProt) Entry Name of Target Chain)>
DPP4_HUMAN

>  <Mean(Number of Protein Chains in Target (>1 implies a multichain complex))>
1

>  <Median(pIC50)>
7.52287874528034

>  <Journal>
BiorgMedChemLett2007

>  <Activity Classes>
7.52287874528034

>  <Conformer_cresset>
1

>  <Similarity_cresset>
0.851

>  <Favorite_cresset>
false

>  <Activity (Median(pIC50))_cresset>
7.52

>  <LE (Median(pIC50))_cresset>
0.390

>  <LipE (Median(pIC50))_cresset>
4.8

>  <Tags_cresset>
test

>  <Confs_cresset>
6

>  <Conf#_cresset>
1

>  <Alns_cresset>
6

>  <MW_cresset>
380.4

>  <#Atoms_cresset>
27

>  <SlogP_cresset>
2.7

>  <TPSA_cresset>
78.7

>  <Flexibility_cresset>
4.9

>  <#RB_cresset>
6

>  <Rof5_cresset>
0

>  <Filename_cresset>
bindingdb_similar_1x70_processed.sdf

>  <Notes_cresset>
48

>  <Selected Alignment_cresset>
true

>  <Alignment Cluster Centre_cresset>
true

>  <_cresset_fieldpoints>
-5      47.857082      49.924858      37.153996    -13.9574
-5      41.310944      48.191380      37.149986     -7.4139
-5      32.792904      45.957222      35.666451     -2.6817
-6      42.031963      53.452240      32.688156     11.5605
-6      35.706451      50.543606      33.251514      5.5045
-7      37.083309      49.383129      32.894745     -2.4145
-7      40.022156      47.925922      35.971573     -2.5474
-7      40.881882      52.505470      38.365238     -2.6341
-7      41.892200      53.348450      32.283566     -1.6489
-7      39.939934      54.380836      33.530411     -1.8739
-7      40.148804      50.318226      32.094017     -1.5151
-7      38.472149      54.474228      36.361675     -2.0543
-7      43.085949      49.621391      34.012074     -2.6504
-7      47.716938      48.862335      35.498100     -1.6741
-7      45.882133      54.613735      36.682438     -2.1396
-7      36.014168      48.981735      39.449543     -2.1446
-7      35.367794      50.403324      33.227554     -2.5486
-7      48.072800      54.483318      31.180317     -1.4055
-7      48.358574      51.936855      37.775478     -1.6579
-7      49.266277      50.207962      36.307468     -1.8146
-8      35.713356      49.795242      36.370831      7.2636
-8      39.513653      51.314526      35.934311      4.9340
-8      43.459724      53.287067      34.738930      3.7834
-8      44.186451      50.821369      37.374886      2.7906
-8      48.018490      52.356289      33.948864      5.4451
-8      37.012589      51.174953      36.644150      5.6131

$$$$
