Copy of bindingdb_similar_1x70_processed:59
 OpenBabel04261912203D

 50 52  0  0  1  0  0  0  0  0999 V2000
   34.4314   49.2776   36.3353 C   0  0  0  0  0  0  0  0  0  0  0  0
   34.6116   50.5953   36.6886 C   0  0  0  0  0  0  0  0  0  0  0  0
   35.8804   51.1302   36.7481 C   0  0  0  0  0  0  0  0  0  0  0  0
   36.9798   50.3459   36.4569 C   0  0  0  0  0  0  0  0  0  0  0  0
   36.7948   49.0245   36.1111 C   0  0  0  0  0  0  0  0  0  0  0  0
   35.5276   48.4889   36.0461 C   0  0  0  0  0  0  0  0  0  0  0  0
   35.3641   47.2037   35.6994 F   0  0  0  0  0  0  0  0  0  0  0  0
   33.1927   48.7679   36.2731 F   0  0  0  0  0  0  0  0  0  0  0  0
   36.0316   52.4182   37.0898 F   0  0  0  0  0  0  0  0  0  0  0  0
   38.3917   50.9178   36.4999 C   0  0  0  0  0  0  0  0  0  0  0  0
   39.0685   51.0840   35.1197 C   0  0  2  0  0  0  0  0  0  0  0  0
   40.4494   51.7625   35.2415 C   0  0  0  0  0  0  0  0  0  0  0  0
   38.2140   51.9365   34.2264 N   0  3  0  0  0  0  0  0  0  0  0  0
   41.4751   50.9790   36.0363 C   0  0  0  0  0  0  0  0  0  0  0  0
   42.6582   51.6094   36.2117 N   0  0  0  0  0  0  0  0  0  0  0  0
   43.0154   52.9011   35.5664 C   0  0  0  0  0  0  0  0  0  0  0  0
   44.2392   52.6972   34.6485 C   0  0  0  0  0  0  0  0  0  0  0  0
   43.6661   50.9842   37.0999 C   0  0  1  0  0  0  0  0  0  0  0  0
   46.1645   50.6699   36.8501 N   0  0  0  0  0  0  0  0  0  0  0  0
   45.0332   51.1776   36.4718 C   0  0  0  0  0  0  0  0  0  0  0  0
   45.2732   51.9520   35.3810 N   0  0  0  0  0  0  0  0  0  0  0  0
   46.6063   51.8811   35.0993 C   0  0  0  0  0  0  0  0  0  0  0  0
   47.1411   51.1066   35.9946 N   0  0  0  0  0  0  0  0  0  0  0  0
   47.3393   52.5574   33.9526 C   0  0  0  0  0  0  0  0  0  0  0  0
   48.7079   52.3172   34.0067 F   0  0  0  0  0  0  0  0  0  0  0  0
   46.8866   52.0895   32.7234 F   0  0  0  0  0  0  0  0  0  0  0  0
   47.1637   53.9370   33.9651 F   0  0  0  0  0  0  0  0  0  0  0  0
   41.2222   49.8670   36.4805 O   0  0  0  0  0  0  0  0  0  0  0  0
   43.6491   51.5337   38.5428 C   0  0  0  0  0  0  0  0  0  0  0  0
   42.3460   51.2251   39.3045 C   0  0  0  0  0  0  0  0  0  0  0  0
   42.4448   51.6716   40.6160 F   0  0  0  0  0  0  0  0  0  0  0  0
   41.2524   51.8586   38.7236 F   0  0  0  0  0  0  0  0  0  0  0  0
   42.0966   49.8584   39.3410 F   0  0  0  0  0  0  0  0  0  0  0  0
   33.8192   51.1674   36.9004 H   0  0  0  0  0  0  0  0  0  0  0  0
   37.5865   48.4514   35.9007 H   0  0  0  0  0  0  0  0  0  0  0  0
   38.3991   51.9837   37.0510 H   0  0  0  0  0  0  0  0  0  0  0  0
   39.0593   50.1707   37.1579 H   0  0  0  0  0  0  0  0  0  0  0  0
   39.1988   50.0053   34.6090 H   0  0  0  0  0  0  0  0  0  0  0  0
   40.2640   52.8294   35.7590 H   0  0  0  0  0  0  0  0  0  0  0  0
   40.8619   51.8970   34.1221 H   0  0  0  0  0  0  0  0  0  0  0  0
   37.3934   51.5642   34.1010 H   0  0  0  0  0  0  0  0  0  0  0  0
   38.5847   52.0445   33.4020 H   0  0  0  0  0  0  0  0  0  0  0  0
   38.0837   52.7652   34.5814 H   0  0  0  0  0  0  0  0  0  0  0  0
   42.1743   53.4435   34.9097 H   0  0  0  0  0  0  0  0  0  0  0  0
   43.3339   53.6727   36.4275 H   0  0  0  0  0  0  0  0  0  0  0  0
   43.9092   52.0700   33.6801 H   0  0  0  0  0  0  0  0  0  0  0  0
   44.6573   53.7688   34.3092 H   0  0  0  0  0  0  0  0  0  0  0  0
   43.4714   49.8005   37.1367 H   0  0  0  0  0  0  0  0  0  0  0  0
   43.8161   52.7212   38.5228 H   0  0  0  0  0  0  0  0  0  0  0  0
   44.5535   51.0340   39.1532 H   0  0  0  0  0  0  0  0  0  0  0  0
  1  2  2  0  0  0  0
  1  8  1  0  0  0  0
  2  3  1  0  0  0  0
  2 34  1  0  0  0  0
  3  4  2  0  0  0  0
  3  9  1  0  0  0  0
  4  5  1  0  0  0  0
  4 10  1  0  0  0  0
  5  6  2  0  0  0  0
  5 35  1  0  0  0  0
  6  1  1  0  0  0  0
  6  7  1  0  0  0  0
 10 36  1  0  0  0  0
 10 37  1  0  0  0  0
 11 10  1  0  0  0  0
 11 12  1  0  0  0  0
 11 13  1  0  0  0  0
 11 38  1  6  0  0  0
 12 14  1  0  0  0  0
 12 39  1  0  0  0  0
 12 40  1  0  0  0  0
 13 41  1  0  0  0  0
 13 42  1  0  0  0  0
 13 43  1  0  0  0  0
 14 15  1  0  0  0  0
 14 28  2  0  0  0  0
 15 16  1  0  0  0  0
 15 18  1  0  0  0  0
 16 17  1  0  0  0  0
 16 44  1  0  0  0  0
 16 45  1  0  0  0  0
 17 21  1  0  0  0  0
 17 46  1  0  0  0  0
 17 47  1  0  0  0  0
 18 29  1  0  0  0  0
 18 48  1  1  0  0  0
 19 20  2  0  0  0  0
 20 18  1  0  0  0  0
 20 21  1  0  0  0  0
 21 22  1  0  0  0  0
 22 23  2  0  0  0  0
 22 24  1  0  0  0  0
 23 19  1  0  0  0  0
 24 25  1  0  0  0  0
 24 26  1  0  0  0  0
 24 27  1  0  0  0  0
 29 30  1  0  0  0  0
 29 49  1  0  0  0  0
 29 50  1  0  0  0  0
 30 31  1  0  0  0  0
 30 32  1  0  0  0  0
 30 33  1  0  0  0  0
M  CHG  1  13   1
M  END
>  <Mean(IC50 fixed2)>
64.35

>  <First(BindingDB Ligand Name)>
CHEMBL536999

>  <Concatenate(Target Name Assigned by Curator or DataSource)>
Dipeptidyl Peptidase IV (DPP-IV), Dipeptidyl Peptidase IV (DPP-IV)

>  <First(Target Source Organism According to Curator or DataSource)>
Homo sapiens

>  <First(Curation/DataSource)>
ChEMBL

>  <First(Article DOI)>
10.1021/jm070330v

>  <Mean(PMID)>
18201067

>  <First(Authors)>
Kim, D; Kowalchick, JE; Brockunier, LL; Parmee, ER; Eiermann, GJ; Fisher, MH; He, H; Leiting, B; Lyons, K; Scapin, G; Patel, SB; Petrov, A; Pryor, KD; Roy, RS; Wu, JK; Zhang, X; Wyvratt, MJ; Zhang, BB; Zhu, L; Thornberry, NA; Weber, AE

>  <First(Institution)>
Merck Research Laboratories<span class=m1fontSize>Curated by</span> <a href=http://www.ebi.ac.uk/chembl/>ChEMBL</a>

>  <First(Link to Ligand in BindingDB)>
http://www.bindingdb.org/bind/chemsearch/marvin/MolStructure.jsp?monomerid=50232508

>  <First(Link to Ligand-Target Pair in BindingDB)>
http://www.bindingdb.org/jsp/dbsearch/PrimarySearch_ki.jsp?energyterm=kJ/mole&tag=r21&monomerid=50232508&enzyme=Dipeptidyl+Peptidase+IV+%28DPP-IV%29&column=ki&startPg=0&Increment=50&submit=Search

>  <Mean(PubChem CID)>
44445041

>  <Mean(PubChem SID)>
104055520

>  <First(ZINC ID of Ligand)>
ZINC36311004

>  <Concatenate*(UniProt (SwissProt) Entry Name of Target Chain)>
DPP4_HUMAN, DPP4_HUMAN

>  <Mean(Number of Protein Chains in Target (>1 implies a multichain complex))>
1

>  <Median(pIC50)>
8.244

>  <Journal>
JMedChem2008

>  <Activity Classes>
8.244

>  <Conformer_cresset>
1

>  <Similarity_cresset>
0.923

>  <Favorite_cresset>
false

>  <Activity (Median(pIC50))_cresset>
8.24

>  <LE (Median(pIC50))_cresset>
0.350

>  <LipE (Median(pIC50))_cresset>
3.9

>  <Tags_cresset>
training

>  <Confs_cresset>
13

>  <Conf#_cresset>
1

>  <Alns_cresset>
10

>  <MW_cresset>
490.4

>  <#Atoms_cresset>
33

>  <SlogP_cresset>
4.3

>  <TPSA_cresset>
78.7

>  <Flexibility_cresset>
5.9

>  <#RB_cresset>
8

>  <Rof5_cresset>
0

>  <Filename_cresset>
bindingdb_similar_1x70_processed.sdf

>  <Notes_cresset>
39b

>  <Selected Alignment_cresset>
true

>  <Alignment Cluster Centre_cresset>
true

>  <_cresset_fieldpoints>
-5      40.681293      48.261913      37.117058     -8.0143
-5      32.779816      45.970242      35.719120     -2.7778
-5      47.843163      49.870747      37.201813    -11.1553
-5      40.927528      49.207642      41.982533     -1.7078
-6      42.071449      53.406189      32.716690     12.0794
-6      35.748562      50.512123      33.244125      5.4434
-7      38.316517      50.682610      39.664173     -2.4053
-7      36.049210      49.025513      39.480255     -2.1619
-7      37.077129      49.398525      32.922237     -2.4167
-7      40.010155      47.945992      36.199871     -2.7509
-7      35.361053      50.418434      33.253159     -2.5478
-7      38.513866      54.463749      36.478985     -2.1657
-7      42.310551      54.822708      38.434902     -1.9616
-7      41.013832      54.672050      37.342983     -2.0963
-7      39.939857      54.392319      33.573853     -1.8909
-7      40.160007      50.320484      32.136463     -1.5203
-7      41.932003      53.302208      32.296947     -1.6945
-7      39.223801      54.255852      37.524178     -2.0807
-7      44.526245      54.118301      31.721201     -1.5868
-7      43.117760      49.613750      34.100964     -2.8182
-7      49.056530      54.146400      31.199669     -1.1104
-7      47.247498      48.717106      35.680305     -1.5251
-7      45.706715      54.315453      37.221020     -2.7167
-7      45.539112      53.170563      40.540337     -1.3290
-7      45.209351      48.534939      38.750969     -1.8820
-7      41.962818      47.756138      36.770149     -1.8926
-8      35.700790      49.808788      36.396305      7.2649
-8      42.503914      51.252270      39.201954      6.1279
-8      39.512165      51.332047      35.983368      4.9748
-8      36.999275      51.186161      36.673878      5.6187
-8      43.461216      53.296566      34.784424      3.8126
-8      47.360291      52.600456      33.883171      5.6582

$$$$
