bindingdb_similar_1x70_processed:1
 OpenBabel04261912203D

 41 43  0  0  1  0  0  0  0  0999 V2000
   35.5405   48.4750   36.0203 C   0  0  0  0  0  0  0  0  0  0  0  0
   34.4452   49.2637   36.3132 C   0  0  0  0  0  0  0  0  0  0  0  0
   34.6271   50.5821   36.6667 C   0  0  0  0  0  0  0  0  0  0  0  0
   35.8963   51.1138   36.7222 C   0  0  0  0  0  0  0  0  0  0  0  0
   36.9911   50.3307   36.4272 C   0  0  0  0  0  0  0  0  0  0  0  0
   36.8077   49.0100   36.0813 C   0  0  0  0  0  0  0  0  0  0  0  0
   35.3774   47.1903   35.6732 F   0  0  0  0  0  0  0  0  0  0  0  0
   33.2065   48.7524   36.2538 F   0  0  0  0  0  0  0  0  0  0  0  0
   38.3983   50.9125   36.4663 C   0  0  0  0  0  0  0  0  0  0  0  0
   39.0743   51.0732   35.0848 C   0  0  2  0  0  0  0  0  0  0  0  0
   40.4536   51.7540   35.2064 C   0  0  0  0  0  0  0  0  0  0  0  0
   41.4843   50.9702   35.9961 C   0  0  0  0  0  0  0  0  0  0  0  0
   38.2176   51.9278   34.1932 N   0  3  0  0  0  0  0  0  0  0  0  0
   41.2346   49.8577   36.4405 O   0  0  0  0  0  0  0  0  0  0  0  0
   43.6810   50.9795   37.0448 C   0  0  0  0  0  0  0  0  0  0  0  0
   43.0296   52.8935   35.5292 C   0  0  0  0  0  0  0  0  0  0  0  0
   44.2496   52.6953   34.6013 C   0  0  0  0  0  0  0  0  0  0  0  0
   42.6664   51.6019   36.1688 N   0  0  0  0  0  0  0  0  0  0  0  0
   45.0464   51.1712   36.4216 C   0  0  0  0  0  0  0  0  0  0  0  0
   46.6094   51.8786   35.0482 C   0  0  0  0  0  0  0  0  0  0  0  0
   45.2805   51.9464   35.3312 N   0  0  0  0  0  0  0  0  0  0  0  0
   46.1790   50.6641   36.7964 N   0  0  0  0  0  0  0  0  0  0  0  0
   47.1525   51.1043   35.9379 N   0  0  0  0  0  0  0  0  0  0  0  0
   33.8360   51.1550   36.8812 H   0  0  0  0  0  0  0  0  0  0  0  0
   36.0234   52.0728   36.9755 H   0  0  0  0  0  0  0  0  0  0  0  0
   37.6000   48.4388   35.8676 H   0  0  0  0  0  0  0  0  0  0  0  0
   38.3800   51.9856   37.0064 H   0  0  0  0  0  0  0  0  0  0  0  0
   39.0663   50.1723   37.1338 H   0  0  0  0  0  0  0  0  0  0  0  0
   39.2072   49.9946   34.5761 H   0  0  0  0  0  0  0  0  0  0  0  0
   40.2652   52.8157   35.7339 H   0  0  0  0  0  0  0  0  0  0  0  0
   40.8669   51.8980   34.0885 H   0  0  0  0  0  0  0  0  0  0  0  0
   37.3976   51.5571   34.0731 H   0  0  0  0  0  0  0  0  0  0  0  0
   38.5845   52.0337   33.3689 H   0  0  0  0  0  0  0  0  0  0  0  0
   38.0914   52.7554   34.5474 H   0  0  0  0  0  0  0  0  0  0  0  0
   43.4687   49.8041   37.1588 H   0  0  0  0  0  0  0  0  0  0  0  0
   43.6517   51.4953   38.1280 H   0  0  0  0  0  0  0  0  0  0  0  0
   42.1832   53.4492   34.8903 H   0  0  0  0  0  0  0  0  0  0  0  0
   43.3614   53.6428   36.4053 H   0  0  0  0  0  0  0  0  0  0  0  0
   43.9149   52.0672   33.6346 H   0  0  0  0  0  0  0  0  0  0  0  0
   44.6778   53.7629   34.2600 H   0  0  0  0  0  0  0  0  0  0  0  0
   47.0800   52.3389   34.2954 H   0  0  0  0  0  0  0  0  0  0  0  0
  1  2  2  0  0  0  0
  1  6  1  0  0  0  0
  1  7  1  0  0  0  0
  2  3  1  0  0  0  0
  2  8  1  0  0  0  0
  3  4  2  0  0  0  0
  3 24  1  0  0  0  0
  4  5  1  0  0  0  0
  4 25  1  0  0  0  0
  5  6  2  0  0  0  0
  5  9  1  0  0  0  0
  6 26  1  0  0  0  0
  9 27  1  0  0  0  0
  9 28  1  0  0  0  0
 10  9  1  0  0  0  0
 10 11  1  0  0  0  0
 10 13  1  0  0  0  0
 10 29  1  6  0  0  0
 11 12  1  0  0  0  0
 11 30  1  0  0  0  0
 11 31  1  0  0  0  0
 12 14  2  0  0  0  0
 12 18  1  0  0  0  0
 13 32  1  0  0  0  0
 13 33  1  0  0  0  0
 13 34  1  0  0  0  0
 15 18  1  0  0  0  0
 15 19  1  0  0  0  0
 15 35  1  0  0  0  0
 15 36  1  0  0  0  0
 16 17  1  0  0  0  0
 16 37  1  0  0  0  0
 16 38  1  0  0  0  0
 17 21  1  0  0  0  0
 17 39  1  0  0  0  0
 17 40  1  0  0  0  0
 18 16  1  0  0  0  0
 20 23  2  0  0  0  0
 20 41  1  0  0  0  0
 21 19  1  0  0  0  0
 21 20  1  0  0  0  0
 22 19  2  0  0  0  0
 22 23  1  0  0  0  0
M  CHG  1  13   1
M  END
>  <Mean(IC50 fixed2)>
455

>  <First(BindingDB Ligand Name)>
Triazolopiperazine Analogue 22

>  <Concatenate(Target Name Assigned by Curator or DataSource)>
Dipeptidyl Peptidase IV (DPP-IV)

>  <First(Target Source Organism According to Curator or DataSource)>
Homo sapiens (human)

>  <First(Curation/DataSource)>
Curated from the literature by BindingDB

>  <First(Article DOI)>
10.1021/jm0493156

>  <Mean(PMID)>
15634008

>  <First(Authors)>
Kim, D; Wang, L; Beconi, M; Eiermann, GJ; Fisher, MH; He, H; Hickey, GJ; Kowalchick, JE; Leiting, B; Lyons, K; Marsilio, F; McCann, ME; Patel, RA; Petrov, A; Scapin, G; Patel, SB; Roy, RS; Wu, JK; Wyvratt, MJ; Zhang, BB; Zhu, L; Thornberry, NA; Weber, AE

>  <First(Institution)>
Merck Research Laboratories

>  <First(Link to Ligand in BindingDB)>
http://www.bindingdb.org/bind/chemsearch/marvin/MolStructure.jsp?monomerid=11157

>  <First(Link to Ligand-Target Pair in BindingDB)>
http://www.bindingdb.org/jsp/dbsearch/PrimarySearch_ki.jsp?energyterm=kJ/mole&tag=r21&monomerid=11157&enzyme=Dipeptidyl+Peptidase+IV+%28DPP-IV%29&column=ki&startPg=0&Increment=50&submit=Search

>  <Mean(PubChem CID)>
23644660

>  <Mean(PubChem SID)>
46509354

>  <First(ZINC ID of Ligand)>
ZINC13607023

>  <Concatenate*(UniProt (SwissProt) Entry Name of Target Chain)>
DPP4_HUMAN

>  <Mean(Number of Protein Chains in Target (>1 implies a multichain complex))>
1

>  <Median(pIC50)>
6.34198860334289

>  <Journal>
JMedChem2005

>  <Activity Classes>
6.34198860334289

>  <Conformer_cresset>
1

>  <Similarity_cresset>
0.799

>  <Favorite_cresset>
false

>  <Activity (Median(pIC50))_cresset>
6.34

>  <LE (Median(pIC50))_cresset>
0.386

>  <LipE (Median(pIC50))_cresset>
4.9

>  <Tags_cresset>
training

>  <Confs_cresset>
2

>  <Conf#_cresset>
1

>  <Alns_cresset>
2

>  <MW_cresset>
322.3

>  <#Atoms_cresset>
23

>  <SlogP_cresset>
1.4

>  <TPSA_cresset>
78.7

>  <Flexibility_cresset>
4.9

>  <#RB_cresset>
5

>  <Rof5_cresset>
0

>  <Filename_cresset>
bindingdb_similar_1x70_processed.sdf

>  <Notes_cresset>
22

>  <Selected Alignment_cresset>
true

>  <Alignment Cluster Centre_cresset>
true

>  <_cresset_fieldpoints>
-5      47.833916      49.903770      37.174904    -13.5353
-5      32.802292      45.974781      35.677727     -3.2556
-5      40.570099      48.200718      36.697487     -7.6967
-5      36.633801      48.655426      39.196907     -1.6135
-5      37.478096      45.145218      35.974289     -1.3431
-6      42.023178      53.474495      32.703163     11.7495
-6      46.008106      53.465275      32.492393      9.4752
-6      40.736488      54.107773      33.385880     11.3635
-7      35.973579      48.831367      39.425079     -2.0344
-7      35.508179      53.180916      34.255329     -1.8609
-7      37.327858      54.196091      36.415070     -1.9880
-7      37.102734      49.383213      32.889603     -2.3954
-7      40.019859      47.930241      35.980225     -2.5419
-7      35.432388      50.302116      33.182896     -2.4660
-7      40.914589      52.537422      38.361092     -2.5941
-7      43.060314      49.617207      34.012337     -2.6043
-7      39.951580      54.378403      33.520519     -1.8590
-7      40.158123      50.315727      32.099262     -1.5123
-7      41.878056      53.364876      32.289948     -1.6284
-7      45.715080      54.411366      37.134254     -1.7900
-7      43.408043      56.053154      34.914902     -1.1358
-7      45.991985      52.964413      31.871658     -1.1370
-7      45.908165      48.501713      38.113983     -1.0418
-7      47.276691      48.642849      36.123856     -1.2191
-7      47.856483      51.556210      38.265381     -1.2213
-8      35.716003      49.786999      36.366886      7.2395
-8      39.514709      51.315159      35.933777      4.9245
-8      43.460373      53.286591      34.733723      3.7627
-8      44.188873      50.822483      37.378891      2.7885
-8      43.672127      52.030926      36.179604      2.6400

$$$$
