bindingdb_similar_1x70_processed:31
 OpenBabel04261912203D

 44 46  0  0  1  0  0  0  0  0999 V2000
   34.4486   49.2354   36.4102 C   0  0  0  0  0  0  0  0  0  0  0  0
   34.6271   50.5586   36.7427 C   0  0  0  0  0  0  0  0  0  0  0  0
   35.8886   51.1135   36.7290 C   0  0  0  0  0  0  0  0  0  0  0  0
   36.9850   50.3426   36.3956 C   0  0  0  0  0  0  0  0  0  0  0  0
   36.8000   49.0204   36.0578 C   0  0  0  0  0  0  0  0  0  0  0  0
   35.5381   48.4659   36.0517 C   0  0  0  0  0  0  0  0  0  0  0  0
   38.3935   50.9234   36.4019 C   0  0  0  0  0  0  0  0  0  0  0  0
   39.0759   51.0881   35.0251 C   0  0  1  0  0  0  0  0  0  0  0  0
   38.2241   51.9535   34.1383 N   0  3  0  0  0  0  0  0  0  0  0  0
   40.4596   51.7593   35.1721 C   0  0  0  0  0  0  0  0  0  0  0  0
   41.4781   50.9724   35.9785 C   0  0  0  0  0  0  0  0  0  0  0  0
   41.2210   49.8608   36.4213 O   0  0  0  0  0  0  0  0  0  0  0  0
   42.6605   51.6000   36.1683 N   0  0  0  0  0  0  0  0  0  0  0  0
   43.0314   52.8993   35.5514 C   0  0  0  0  0  0  0  0  0  0  0  0
   44.2463   52.7026   34.6176 C   0  0  0  0  0  0  0  0  0  0  0  0
   43.6757   50.9725   37.0421 C   0  0  0  0  0  0  0  0  0  0  0  0
   45.0448   51.1625   36.4192 C   0  0  0  0  0  0  0  0  0  0  0  0
   45.2839   51.9463   35.3347 N   0  0  0  0  0  0  0  0  0  0  0  0
   46.6163   51.8747   35.0502 C   0  0  0  0  0  0  0  0  0  0  0  0
   47.1507   51.0912   35.9380 N   0  0  0  0  0  0  0  0  0  0  0  0
   46.1750   50.6481   36.7911 N   0  0  0  0  0  0  0  0  0  0  0  0
   47.3521   52.5595   33.9106 C   0  0  0  0  0  0  0  0  0  0  0  0
   48.7193   52.3109   33.9639 F   0  0  0  0  0  0  0  0  0  0  0  0
   46.8983   52.1051   32.6773 F   0  0  0  0  0  0  0  0  0  0  0  0
   47.1841   53.9398   33.9372 F   0  0  0  0  0  0  0  0  0  0  0  0
   36.0362   52.4078   37.0444 F   0  0  0  0  0  0  0  0  0  0  0  0
   35.3830   47.1819   35.6918 F   0  0  0  0  0  0  0  0  0  0  0  0
   32.8464   48.5526   36.4454 Cl  0  0  0  0  0  0  0  0  0  0  0  0
   33.8390   51.1194   36.9951 H   0  0  0  0  0  0  0  0  0  0  0  0
   37.5901   48.4573   35.8115 H   0  0  0  0  0  0  0  0  0  0  0  0
   38.3958   51.9932   36.9451 H   0  0  0  0  0  0  0  0  0  0  0  0
   39.0684   50.1893   37.0688 H   0  0  0  0  0  0  0  0  0  0  0  0
   39.2056   50.0128   34.5076 H   0  0  0  0  0  0  0  0  0  0  0  0
   37.3997   51.5923   34.0078 H   0  0  0  0  0  0  0  0  0  0  0  0
   38.5896   52.0692   33.3139 H   0  0  0  0  0  0  0  0  0  0  0  0
   38.0989   52.7806   34.4964 H   0  0  0  0  0  0  0  0  0  0  0  0
   40.2701   52.8207   35.6984 H   0  0  0  0  0  0  0  0  0  0  0  0
   40.8878   51.9109   34.0614 H   0  0  0  0  0  0  0  0  0  0  0  0
   42.1882   53.4741   34.9253 H   0  0  0  0  0  0  0  0  0  0  0  0
   43.3764   53.6267   36.4411 H   0  0  0  0  0  0  0  0  0  0  0  0
   43.9065   52.0810   33.6490 H   0  0  0  0  0  0  0  0  0  0  0  0
   44.6633   53.7753   34.2808 H   0  0  0  0  0  0  0  0  0  0  0  0
   43.4600   49.7979   37.1627 H   0  0  0  0  0  0  0  0  0  0  0  0
   43.6527   51.4946   38.1225 H   0  0  0  0  0  0  0  0  0  0  0  0
  1  2  2  0  0  0  0
  1 28  1  0  0  0  0
  2  3  1  0  0  0  0
  2 29  1  0  0  0  0
  3  4  2  0  0  0  0
  3 26  1  0  0  0  0
  4  5  1  0  0  0  0
  4  7  1  0  0  0  0
  5  6  2  0  0  0  0
  5 30  1  0  0  0  0
  6  1  1  0  0  0  0
  6 27  1  0  0  0  0
  7 31  1  0  0  0  0
  7 32  1  0  0  0  0
  8  7  1  0  0  0  0
  8  9  1  0  0  0  0
  8 10  1  0  0  0  0
  8 33  1  6  0  0  0
  9 34  1  0  0  0  0
  9 35  1  0  0  0  0
  9 36  1  0  0  0  0
 10 11  1  0  0  0  0
 10 37  1  0  0  0  0
 10 38  1  0  0  0  0
 11 12  2  0  0  0  0
 11 13  1  0  0  0  0
 13 14  1  0  0  0  0
 13 16  1  0  0  0  0
 14 15  1  0  0  0  0
 14 39  1  0  0  0  0
 14 40  1  0  0  0  0
 15 18  1  0  0  0  0
 15 41  1  0  0  0  0
 15 42  1  0  0  0  0
 16 43  1  0  0  0  0
 16 44  1  0  0  0  0
 17 16  1  0  0  0  0
 17 18  1  0  0  0  0
 18 19  1  0  0  0  0
 19 20  2  0  0  0  0
 19 22  1  0  0  0  0
 20 21  1  0  0  0  0
 21 17  2  0  0  0  0
 22 23  1  0  0  0  0
 22 24  1  0  0  0  0
 22 25  1  0  0  0  0
M  CHG  1   9   1
M  END
>  <Mean(IC50 fixed2)>
76

>  <First(BindingDB Ligand Name)>
CHEMBL232845

>  <Concatenate(Target Name Assigned by Curator or DataSource)>
Dipeptidyl Peptidase IV (DPP-IV)

>  <First(Target Source Organism According to Curator or DataSource)>
Homo sapiens

>  <First(Curation/DataSource)>
ChEMBL

>  <First(Article DOI)>
10.1016/j.bmcl.2007.03.098

>  <Mean(PMID)>
17434732

>  <First(Authors)>
Kim, D; Kowalchick, JE; Edmondson, SD; Mastracchio, A; Xu, J; Eiermann, GJ; Leiting, B; Wu, JK; Pryor, KD; Patel, RA; He, H; Lyons, KA; Thornberry, NA; Weber, AE

>  <First(Institution)>
Merck Research Laboratories<span class=m1fontSize>Curated by</span> <a href=http://www.ebi.ac.uk/chembl/>ChEMBL</a>

>  <First(Link to Ligand in BindingDB)>
http://www.bindingdb.org/bind/chemsearch/marvin/MolStructure.jsp?monomerid=50210669

>  <First(Link to Ligand-Target Pair in BindingDB)>
http://www.bindingdb.org/jsp/dbsearch/PrimarySearch_ki.jsp?energyterm=kJ/mole&tag=r21&monomerid=50210669&enzyme=Dipeptidyl+Peptidase+IV+%28DPP-IV%29&column=ki&startPg=0&Increment=50&submit=Search

>  <Mean(PubChem CID)>
17753031

>  <Mean(PubChem SID)>
104087156

>  <First(ZINC ID of Ligand)>
ZINC28820819

>  <Concatenate*(UniProt (SwissProt) Entry Name of Target Chain)>
DPP4_HUMAN

>  <Mean(Number of Protein Chains in Target (>1 implies a multichain complex))>
1

>  <Median(pIC50)>
7.11918640771921

>  <Journal>
BiorgMedChemLett2007

>  <Activity Classes>
7.11918640771921

>  <Conformer_cresset>
1

>  <Similarity_cresset>
0.868

>  <Favorite_cresset>
false

>  <Activity (Median(pIC50))_cresset>
7.12

>  <LE (Median(pIC50))_cresset>
0.356

>  <LipE (Median(pIC50))_cresset>
4

>  <Tags_cresset>
training

>  <Confs_cresset>
2

>  <Conf#_cresset>
1

>  <Alns_cresset>
2

>  <MW_cresset>
424.8

>  <#Atoms_cresset>
28

>  <SlogP_cresset>
3.1

>  <TPSA_cresset>
78.7

>  <Flexibility_cresset>
4.9

>  <#RB_cresset>
6

>  <Rof5_cresset>
0

>  <Filename_cresset>
bindingdb_similar_1x70_processed.sdf

>  <Notes_cresset>
40

>  <Selected Alignment_cresset>
true

>  <Alignment Cluster Centre_cresset>
true

>  <_cresset_fieldpoints>
-5      47.835773      49.875633      37.182487    -12.2662
-5      40.649120      48.185825      36.778862     -7.1788
-5      32.919109      45.876804      35.836243     -2.3568
-6      32.404331      52.618759      36.248581      3.4141
-6      42.056858      53.483444      32.724468     11.7381
-7      35.291416      50.467297      33.285686     -2.4924
-7      37.076935      49.398190      32.868553     -2.3687
-7      40.850842      52.497730      38.344048     -2.6389
-7      41.944836      53.416313      32.306786     -1.6962
-7      39.974979      54.402401      33.510933     -1.8752
-7      38.466785      54.490932      36.322182     -2.0484
-7      40.184296      50.370106      32.037411     -1.5048
-7      40.009239      47.941250      35.911167     -2.5535
-7      44.539814      54.145248      31.697094     -1.5817
-7      43.114216      49.636009      33.997635     -2.7001
-7      47.957146      51.980335      38.030090     -1.4884
-7      45.802341      54.477184      36.956318     -2.3040
-7      47.293442      48.720043      35.524445     -1.4943
-7      49.083496      54.171307      31.181604     -1.1103
-7      36.260796      49.034676      39.466351     -2.0949
-8      35.718410      49.790783      36.396202      7.2439
-8      39.510113      51.329029      35.888515      4.9528
-8      43.473160      53.296116      34.760384      3.7889
-8      34.267159      49.076530      36.389061      5.6766
-8      44.186062      50.821213      37.374706      2.7960
-8      47.373825      52.605282      33.843552      5.6560
-8      37.003239      51.183216      36.617416      5.6138

$$$$
