Copy of bindingdb_similar_1x70_processed:43
 OpenBabel04261912203D

 47 49  0  0  1  0  0  0  0  0999 V2000
   34.4445   49.2630   36.3127 C   0  0  0  0  0  0  0  0  0  0  0  0
   34.6245   50.5805   36.6664 C   0  0  0  0  0  0  0  0  0  0  0  0
   35.8932   51.1165   36.7230 C   0  0  0  0  0  0  0  0  0  0  0  0
   36.9924   50.3334   36.4283 C   0  0  0  0  0  0  0  0  0  0  0  0
   36.8075   49.0123   36.0817 C   0  0  0  0  0  0  0  0  0  0  0  0
   35.5406   48.4755   36.0198 C   0  0  0  0  0  0  0  0  0  0  0  0
   35.3772   47.1905   35.6723 F   0  0  0  0  0  0  0  0  0  0  0  0
   33.2062   48.7521   36.2533 F   0  0  0  0  0  0  0  0  0  0  0  0
   36.0439   52.4044   37.0654 F   0  0  0  0  0  0  0  0  0  0  0  0
   38.4041   50.9062   36.4678 C   0  0  0  0  0  0  0  0  0  0  0  0
   39.0766   51.0740   35.0853 C   0  0  2  0  0  0  0  0  0  0  0  0
   40.4571   51.7540   35.2047 C   0  0  0  0  0  0  0  0  0  0  0  0
   38.2190   51.9275   34.1953 N   0  3  0  0  0  0  0  0  0  0  0  0
   41.4855   50.9708   35.9966 C   0  0  0  0  0  0  0  0  0  0  0  0
   42.6667   51.6035   36.1710 N   0  0  0  0  0  0  0  0  0  0  0  0
   43.0231   52.8946   35.5236 C   0  0  0  0  0  0  0  0  0  0  0  0
   44.2449   52.6925   34.6023 C   0  0  0  0  0  0  0  0  0  0  0  0
   43.6802   50.9736   37.0460 C   0  0  1  0  0  0  0  0  0  0  0  0
   46.1784   50.6649   36.7970 N   0  0  0  0  0  0  0  0  0  0  0  0
   45.0465   51.1730   36.4229 C   0  0  0  0  0  0  0  0  0  0  0  0
   45.2820   51.9479   35.3314 N   0  0  0  0  0  0  0  0  0  0  0  0
   46.6139   51.8780   35.0454 C   0  0  0  0  0  0  0  0  0  0  0  0
   47.1518   51.1033   35.9387 N   0  0  0  0  0  0  0  0  0  0  0  0
   47.3431   52.5560   33.8973 C   0  0  0  0  0  0  0  0  0  0  0  0
   48.7121   52.3168   33.9475 F   0  0  0  0  0  0  0  0  0  0  0  0
   47.1664   53.9354   33.9116 F   0  0  0  0  0  0  0  0  0  0  0  0
   46.8876   52.0887   32.6689 F   0  0  0  0  0  0  0  0  0  0  0  0
   41.2352   49.8582   36.4402 O   0  0  0  0  0  0  0  0  0  0  0  0
   43.5913   51.5229   38.4798 C   0  0  0  0  0  0  0  0  0  0  0  0
   33.8323   51.1518   36.8807 H   0  0  0  0  0  0  0  0  0  0  0  0
   37.5993   48.4400   35.8685 H   0  0  0  0  0  0  0  0  0  0  0  0
   38.4108   51.9717   37.0206 H   0  0  0  0  0  0  0  0  0  0  0  0
   39.0744   50.1584   37.1236 H   0  0  0  0  0  0  0  0  0  0  0  0
   39.2067   49.9953   34.5737 H   0  0  0  0  0  0  0  0  0  0  0  0
   40.2724   52.8197   35.7253 H   0  0  0  0  0  0  0  0  0  0  0  0
   40.8664   51.8903   34.0845 H   0  0  0  0  0  0  0  0  0  0  0  0
   37.3998   51.5543   34.0718 H   0  0  0  0  0  0  0  0  0  0  0  0
   38.5873   52.0367   33.3712 H   0  0  0  0  0  0  0  0  0  0  0  0
   38.0895   52.7541   34.5517 H   0  0  0  0  0  0  0  0  0  0  0  0
   42.1801   53.4368   34.8693 H   0  0  0  0  0  0  0  0  0  0  0  0
   43.3456   53.6641   36.3853 H   0  0  0  0  0  0  0  0  0  0  0  0
   43.9130   52.0655   33.6343 H   0  0  0  0  0  0  0  0  0  0  0  0
   44.6609   53.7647   34.2620 H   0  0  0  0  0  0  0  0  0  0  0  0
   43.4721   49.7931   37.0929 H   0  0  0  0  0  0  0  0  0  0  0  0
   43.9334   52.6722   38.5038 H   0  0  0  0  0  0  0  0  0  0  0  0
   44.3085   50.8849   39.1989 H   0  0  0  0  0  0  0  0  0  0  0  0
   42.4597   51.4362   38.8689 H   0  0  0  0  0  0  0  0  0  0  0  0
  1  2  2  0  0  0  0
  1  8  1  0  0  0  0
  2  3  1  0  0  0  0
  2 30  1  0  0  0  0
  3  4  2  0  0  0  0
  3  9  1  0  0  0  0
  4  5  1  0  0  0  0
  4 10  1  0  0  0  0
  5  6  2  0  0  0  0
  5 31  1  0  0  0  0
  6  1  1  0  0  0  0
  6  7  1  0  0  0  0
 10 32  1  0  0  0  0
 10 33  1  0  0  0  0
 11 10  1  0  0  0  0
 11 12  1  0  0  0  0
 11 13  1  0  0  0  0
 11 34  1  6  0  0  0
 12 14  1  0  0  0  0
 12 35  1  0  0  0  0
 12 36  1  0  0  0  0
 13 37  1  0  0  0  0
 13 38  1  0  0  0  0
 13 39  1  0  0  0  0
 14 15  1  0  0  0  0
 14 28  2  0  0  0  0
 15 16  1  0  0  0  0
 15 18  1  0  0  0  0
 16 17  1  0  0  0  0
 16 40  1  0  0  0  0
 16 41  1  0  0  0  0
 17 21  1  0  0  0  0
 17 42  1  0  0  0  0
 17 43  1  0  0  0  0
 18 29  1  0  0  0  0
 18 44  1  1  0  0  0
 19 20  2  0  0  0  0
 20 18  1  0  0  0  0
 20 21  1  0  0  0  0
 21 22  1  0  0  0  0
 22 23  2  0  0  0  0
 22 24  1  0  0  0  0
 23 19  1  0  0  0  0
 24 25  1  0  0  0  0
 24 26  1  0  0  0  0
 24 27  1  0  0  0  0
 29 45  1  0  0  0  0
 29 46  1  0  0  0  0
 29 47  1  0  0  0  0
M  CHG  1  13   1
M  END
>  <Mean(IC50 fixed2)>
46.15

>  <First(BindingDB Ligand Name)>
CHEMBL557542

>  <Concatenate(Target Name Assigned by Curator or DataSource)>
Dipeptidyl Peptidase IV (DPP-IV), Dipeptidyl Peptidase IV (DPP-IV)

>  <First(Target Source Organism According to Curator or DataSource)>
Homo sapiens

>  <First(Curation/DataSource)>
ChEMBL

>  <First(Article DOI)>
10.1021/jm070330v

>  <Mean(PMID)>
18201067

>  <First(Authors)>
Kim, D; Kowalchick, JE; Brockunier, LL; Parmee, ER; Eiermann, GJ; Fisher, MH; He, H; Leiting, B; Lyons, K; Scapin, G; Patel, SB; Petrov, A; Pryor, KD; Roy, RS; Wu, JK; Zhang, X; Wyvratt, MJ; Zhang, BB; Zhu, L; Thornberry, NA; Weber, AE

>  <First(Institution)>
Merck Research Laboratories<span class=m1fontSize>Curated by</span> <a href=http://www.ebi.ac.uk/chembl/>ChEMBL</a>

>  <First(Link to Ligand in BindingDB)>
http://www.bindingdb.org/bind/chemsearch/marvin/MolStructure.jsp?monomerid=50232502

>  <First(Link to Ligand-Target Pair in BindingDB)>
http://www.bindingdb.org/jsp/dbsearch/PrimarySearch_ki.jsp?energyterm=kJ/mole&tag=r21&monomerid=50232502&enzyme=Dipeptidyl+Peptidase+IV+%28DPP-IV%29&column=ki&startPg=0&Increment=50&submit=Search

>  <Mean(PubChem CID)>
44445029

>  <Mean(PubChem SID)>
104055514

>  <First(ZINC ID of Ligand)>
ZINC28967362

>  <Concatenate*(UniProt (SwissProt) Entry Name of Target Chain)>
DPP4_HUMAN, DPP4_HUMAN

>  <Mean(Number of Protein Chains in Target (>1 implies a multichain complex))>
1

>  <Median(pIC50)>
8.366

>  <Journal>
JMedChem2008

>  <Activity Classes>
8.366

>  <Conformer_cresset>
1

>  <Similarity_cresset>
0.887

>  <Favorite_cresset>
false

>  <Activity (Median(pIC50))_cresset>
8.37

>  <LE (Median(pIC50))_cresset>
0.404

>  <LipE (Median(pIC50))_cresset>
5

>  <Tags_cresset>
training

>  <Confs_cresset>
2

>  <Conf#_cresset>
1

>  <Alns_cresset>
2

>  <MW_cresset>
422.4

>  <#Atoms_cresset>
29

>  <SlogP_cresset>
3.4

>  <TPSA_cresset>
78.7

>  <Flexibility_cresset>
4.9

>  <#RB_cresset>
6

>  <Rof5_cresset>
0

>  <Filename_cresset>
bindingdb_similar_1x70_processed.sdf

>  <Notes_cresset>
34b X-ray

>  <Selected Alignment_cresset>
true

>  <Alignment Cluster Centre_cresset>
true

>  <_cresset_fieldpoints>
-5      41.326443      48.220608      37.209435     -7.0860
-5      47.835308      49.904530      37.202171    -12.3238
-5      32.788887      45.958611      35.665928     -2.5931
-6      35.724182      50.524788      33.244183      5.6075
-6      42.034664      53.401897      32.678318     11.6954
-7      36.022301      48.985588      39.449337     -2.1449
-7      37.083282      49.390186      32.893848     -2.4157
-7      40.024372      47.929268      35.976639     -2.5649
-7      40.923912      49.386818      38.670242     -2.3504
-7      35.363495      50.408382      33.227940     -2.5483
-7      40.609486      53.013744      38.191669     -2.8079
-7      38.473034      54.472744      36.367271     -2.0600
-7      39.940990      54.381405      33.527416     -1.8801
-7      40.148174      50.307232      32.097057     -1.5173
-7      41.935425      53.300838      32.256802     -1.6906
-7      44.529552      54.126205      31.677088     -1.5863
-7      47.263969      48.718105      35.584629     -1.5153
-7      45.916027      48.828262      38.545258     -1.4420
-7      49.053009      54.155331      31.148691     -1.1104
-7      43.118031      49.619366      34.029335     -2.7618
-7      45.741970      54.356663      37.100677     -2.6237
-8      35.713520      49.795204      36.370537      7.2638
-8      43.468010      53.287113      34.736317      3.8071
-8      37.009327      51.172493      36.644157      5.6136
-8      44.132568      51.247551      37.780041      4.1830
-8      47.361290      52.600048      33.827896      5.6574
-8      39.511810      51.318371      35.937107      4.9387

$$$$
