@<TRIPOS>MOLECULE
bindingdb_similar_1x70_processed:5
 44 46 0 0 0
SMALL
GASTEIGER

@<TRIPOS>ATOM
      1 C          34.4849   49.2132   36.3797 C.ar    1  LIG1        0.1234
      2 C          34.6133   50.5678   36.5965 C.ar    1  LIG1       -0.0262
      3 C          35.8610   51.1465   36.6081 C.ar    1  LIG1       -0.0557
      4 C          36.9857   50.3777   36.4046 C.ar    1  LIG1       -0.0419
      5 C          36.8549   49.0225   36.1912 C.ar    1  LIG1       -0.0557
      6 C          35.6080   48.4408   36.1768 C.ar    1  LIG1       -0.0262
      7 C          38.3575   51.0343   36.4151 C.3     1  LIG1        0.0159
      8 C          39.0575   51.1198   35.0402 C.3     1  LIG1       -0.0119
      9 N          38.2249   51.9234   34.0799 N.4     1  LIG1        0.2213
     10 C          40.4388   51.7955   35.1701 C.3     1  LIG1        0.0673
     11 C          41.4467   50.9936   35.9724 C.2     1  LIG1        0.2214
     12 O          41.1671   49.8886   36.4183 O.2     1  LIG1       -0.2754
     13 N          42.6448   51.5949   36.1487 N.am    1  LIG1       -0.2923
     14 C          43.0291   52.8979   35.5460 C.3     1  LIG1        0.0332
     15 C          44.2541   52.7185   34.6214 C.3     1  LIG1        0.0422
     16 C          43.6550   50.9346   37.0024 C.3     1  LIG1        0.0746
     17 C          45.0261   51.1235   36.3859 C.ar    1  LIG1        0.1512
     18 N          45.2799   51.9351   35.3259 N.ar    1  LIG1       -0.3048
     19 C          46.6135   51.8558   35.0460 C.ar    1  LIG1        0.2376
     20 N          47.1324   51.0368   35.9107 N.ar    1  LIG1       -0.1250
     21 N          46.1469   50.5815   36.7456 N.ar    1  LIG1       -0.1324
     22 C          47.3664   52.5719   33.9368 C.3     1  LIG1        0.4524
     23 F          47.2523   53.9538   34.0440 F       1  LIG1       -0.1632
     24 F          48.7240   52.2695   33.9620 F       1  LIG1       -0.1632
     25 F          46.8867   52.2075   32.6832 F       1  LIG1       -0.1632
     26 F          33.2697   48.6491   36.3654 F       1  LIG1       -0.2055
     27 H          39.2002   50.0126   34.6007 H       1  LIG1        0.0858
     28 H          33.7997   51.1301   36.7447 H       1  LIG1        0.0646
     29 H          35.9522   52.1299   36.7646 H       1  LIG1        0.0621
     30 H          37.6686   48.4603   36.0433 H       1  LIG1        0.0621
     31 H          35.5168   47.4575   36.0189 H       1  LIG1        0.0646
     32 H          38.2588   52.1460   36.8575 H       1  LIG1        0.0368
     33 H          39.0483   50.4020   37.1643 H       1  LIG1        0.0368
     34 H          37.3979   51.5625   33.9624 H       1  LIG1        0.1997
     35 H          38.6048   51.9755   33.2547 H       1  LIG1        0.1997
     36 H          38.1018   52.7768   34.3706 H       1  LIG1        0.1997
     37 H          40.2566   52.8606   35.6924 H       1  LIG1        0.0414
     38 H          40.8693   51.9337   34.0582 H       1  LIG1        0.0414
     39 H          42.1927   53.4820   34.9195 H       1  LIG1        0.0482
     40 H          43.3646   53.6139   36.4487 H       1  LIG1        0.0482
     41 H          43.9203   52.1264   33.6325 H       1  LIG1        0.0508
     42 H          44.6838   53.7965   34.3175 H       1  LIG1        0.0508
     43 H          43.4247   49.7602   37.0889 H       1  LIG1        0.0545
     44 H          43.6367   51.4264   38.0969 H       1  LIG1        0.0545
@<TRIPOS>BOND
     1     1     2   ar
     2     1    26    1
     3     2     3   ar
     4     2    28    1
     5     3     4   ar
     6     3    29    1
     7     4     5   ar
     8     4     7    1
     9     5     6   ar
    10     5    30    1
    11     6     1   ar
    12     6    31    1
    13     7    32    1
    14     7    33    1
    15     8     7    1
    16     8     9    1
    17     8    10    1
    18     8    27    1
    19     9    34    1
    20     9    35    1
    21     9    36    1
    22    10    11    1
    23    10    37    1
    24    10    38    1
    25    11    12    2
    26    11    13   am
    27    13    14    1
    28    13    16    1
    29    14    15    1
    30    14    39    1
    31    14    40    1
    32    15    18    1
    33    15    41    1
    34    15    42    1
    35    16    43    1
    36    16    44    1
    37    17    16    1
    38    17    18   ar
    39    18    19   ar
    40    19    20   ar
    41    19    22    1
    42    20    21   ar
    43    21    17   ar
    44    22    23    1
    45    22    24    1
    46    22    25    1
