bindingdb_similar_1x70_processed:29
 OpenBabel04261912203D

 44 46  0  0  1  0  0  0  0  0999 V2000
   34.4483   49.2720   36.2623 C   0  0  0  0  0  0  0  0  0  0  0  0
   35.5449   48.4730   36.0265 C   0  0  0  0  0  0  0  0  0  0  0  0
   36.8130   49.0038   36.1141 C   0  0  0  0  0  0  0  0  0  0  0  0
   36.9941   50.3293   36.4470 C   0  0  0  0  0  0  0  0  0  0  0  0
   35.8937   51.1224   36.7033 C   0  0  0  0  0  0  0  0  0  0  0  0
   34.6203   50.5957   36.5968 C   0  0  0  0  0  0  0  0  0  0  0  0
   38.4056   50.9025   36.4928 C   0  0  0  0  0  0  0  0  0  0  0  0
   39.0679   51.0755   35.1046 C   0  0  2  0  0  0  0  0  0  0  0  0
   40.4498   51.7530   35.2212 C   0  0  0  0  0  0  0  0  0  0  0  0
   41.4826   50.9661   36.0048 C   0  0  0  0  0  0  0  0  0  0  0  0
   42.6654   51.5976   36.1769 N   0  0  0  0  0  0  0  0  0  0  0  0
   41.2378   49.8502   36.4438 O   0  0  0  0  0  0  0  0  0  0  0  0
   38.2091   51.9286   34.2099 N   0  3  0  0  0  0  0  0  0  0  0  0
   43.0258   52.8937   35.5464 C   0  0  0  0  0  0  0  0  0  0  0  0
   44.2397   52.6976   34.6106 C   0  0  0  0  0  0  0  0  0  0  0  0
   43.6866   50.9747   37.0455 C   0  0  0  0  0  0  0  0  0  0  0  0
   45.0505   51.1676   36.4158 C   0  0  0  0  0  0  0  0  0  0  0  0
   45.2823   51.9478   35.3278 N   0  0  0  0  0  0  0  0  0  0  0  0
   46.6138   51.8785   35.0380 C   0  0  0  0  0  0  0  0  0  0  0  0
   47.1539   51.0997   35.9267 N   0  0  0  0  0  0  0  0  0  0  0  0
   46.1833   50.6575   36.7855 N   0  0  0  0  0  0  0  0  0  0  0  0
   47.3410   52.5602   33.8915 C   0  0  0  0  0  0  0  0  0  0  0  0
   48.7095   52.3175   33.9384 F   0  0  0  0  0  0  0  0  0  0  0  0
   46.8813   52.0989   32.6625 F   0  0  0  0  0  0  0  0  0  0  0  0
   47.1666   53.9397   33.9133 F   0  0  0  0  0  0  0  0  0  0  0  0
   36.0529   52.4084   37.0552 F   0  0  0  0  0  0  0  0  0  0  0  0
   33.5470   51.3693   36.8150 F   0  0  0  0  0  0  0  0  0  0  0  0
   35.3777   47.1844   35.7010 F   0  0  0  0  0  0  0  0  0  0  0  0
   33.5272   48.8900   36.1903 H   0  0  0  0  0  0  0  0  0  0  0  0
   37.6072   48.4271   35.9229 H   0  0  0  0  0  0  0  0  0  0  0  0
   38.4125   51.9677   37.0464 H   0  0  0  0  0  0  0  0  0  0  0  0
   39.0788   50.1548   37.1463 H   0  0  0  0  0  0  0  0  0  0  0  0
   39.2012   49.9971   34.5956 H   0  0  0  0  0  0  0  0  0  0  0  0
   40.2673   52.8167   35.7463 H   0  0  0  0  0  0  0  0  0  0  0  0
   40.8595   51.8955   34.1021 H   0  0  0  0  0  0  0  0  0  0  0  0
   37.3869   51.5614   34.0827 H   0  0  0  0  0  0  0  0  0  0  0  0
   38.5745   52.0413   33.3838 H   0  0  0  0  0  0  0  0  0  0  0  0
   38.0788   52.7574   34.5629 H   0  0  0  0  0  0  0  0  0  0  0  0
   42.1776   53.4555   34.9149 H   0  0  0  0  0  0  0  0  0  0  0  0
   43.3659   53.6329   36.4279 H   0  0  0  0  0  0  0  0  0  0  0  0
   43.9005   52.0720   33.6441 H   0  0  0  0  0  0  0  0  0  0  0  0
   44.6530   53.7706   34.2686 H   0  0  0  0  0  0  0  0  0  0  0  0
   43.4746   49.7997   37.1635 H   0  0  0  0  0  0  0  0  0  0  0  0
   43.6659   51.4951   38.1260 H   0  0  0  0  0  0  0  0  0  0  0  0
  1  2  2  0  0  0  0
  1 29  1  0  0  0  0
  2  3  1  0  0  0  0
  2 28  1  0  0  0  0
  3  4  2  0  0  0  0
  3 30  1  0  0  0  0
  4  5  1  0  0  0  0
  4  7  1  0  0  0  0
  5  6  2  0  0  0  0
  5 26  1  0  0  0  0
  6  1  1  0  0  0  0
  6 27  1  0  0  0  0
  7 31  1  0  0  0  0
  7 32  1  0  0  0  0
  8  7  1  0  0  0  0
  8  9  1  0  0  0  0
  8 13  1  0  0  0  0
  8 33  1  6  0  0  0
  9 10  1  0  0  0  0
  9 34  1  0  0  0  0
  9 35  1  0  0  0  0
 10 11  1  0  0  0  0
 10 12  2  0  0  0  0
 11 14  1  0  0  0  0
 11 16  1  0  0  0  0
 13 36  1  0  0  0  0
 13 37  1  0  0  0  0
 13 38  1  0  0  0  0
 14 15  1  0  0  0  0
 14 39  1  0  0  0  0
 14 40  1  0  0  0  0
 15 18  1  0  0  0  0
 15 41  1  0  0  0  0
 15 42  1  0  0  0  0
 16 43  1  0  0  0  0
 16 44  1  0  0  0  0
 17 16  1  0  0  0  0
 17 18  1  0  0  0  0
 18 19  1  0  0  0  0
 19 20  2  0  0  0  0
 19 22  1  0  0  0  0
 20 21  1  0  0  0  0
 21 17  2  0  0  0  0
 22 23  1  0  0  0  0
 22 24  1  0  0  0  0
 22 25  1  0  0  0  0
M  CHG  1  13   1
M  END
>  <Mean(IC50 fixed2)>
805

>  <First(BindingDB Ligand Name)>
CHEMBL243872

>  <Concatenate(Target Name Assigned by Curator or DataSource)>
Dipeptidyl Peptidase IV (DPP-IV), Dipeptidyl Peptidase IV (DPP-IV)

>  <First(Target Source Organism According to Curator or DataSource)>
Homo sapiens

>  <First(Curation/DataSource)>
ChEMBL

>  <First(Article DOI)>
10.1016/j.bmcl.2007.03.098

>  <Mean(PMID)>
18002548.5

>  <First(Authors)>
Kim, D; Kowalchick, JE; Edmondson, SD; Mastracchio, A; Xu, J; Eiermann, GJ; Leiting, B; Wu, JK; Pryor, KD; Patel, RA; He, H; Lyons, KA; Thornberry, NA; Weber, AE

>  <First(Institution)>
Merck Research Laboratories<span class=m1fontSize>Curated by</span> <a href=http://www.ebi.ac.uk/chembl/>ChEMBL</a>

>  <First(Link to Ligand in BindingDB)>
http://www.bindingdb.org/bind/chemsearch/marvin/MolStructure.jsp?monomerid=50210655

>  <First(Link to Ligand-Target Pair in BindingDB)>
http://www.bindingdb.org/jsp/dbsearch/PrimarySearch_ki.jsp?energyterm=kJ/mole&tag=r21&monomerid=50210655&enzyme=Dipeptidyl+Peptidase+IV+%28DPP-IV%29&column=ki&startPg=0&Increment=50&submit=Search

>  <Mean(PubChem CID)>
44431170

>  <Mean(PubChem SID)>
104087142

>  <First(ZINC ID of Ligand)>
ZINC28820712

>  <Concatenate*(UniProt (SwissProt) Entry Name of Target Chain)>
DPP4_HUMAN, DPP4_HUMAN

>  <Mean(Number of Protein Chains in Target (>1 implies a multichain complex))>
1

>  <Median(pIC50)>
6.09420411963213

>  <Journal>
BiorgMedChemLett2007

>  <Activity Classes>
6.09420411963213

>  <Conformer_cresset>
1

>  <Similarity_cresset>
0.835

>  <Favorite_cresset>
false

>  <Activity (Median(pIC50))_cresset>
6.09

>  <LE (Median(pIC50))_cresset>
0.304

>  <LipE (Median(pIC50))_cresset>
3.3

>  <Tags_cresset>
test

>  <Confs_cresset>
2

>  <Conf#_cresset>
1

>  <Alns_cresset>
2

>  <MW_cresset>
408.3

>  <#Atoms_cresset>
28

>  <SlogP_cresset>
2.8

>  <TPSA_cresset>
78.7

>  <Flexibility_cresset>
4.9

>  <#RB_cresset>
6

>  <Rof5_cresset>
0

>  <Filename_cresset>
bindingdb_similar_1x70_processed.sdf

>  <Notes_cresset>
26

>  <Selected Alignment_cresset>
true

>  <Alignment Cluster Centre_cresset>
true

>  <_cresset_fieldpoints>
-5      47.851315      49.894257      37.172600    -12.2264
-5      40.760899      48.154545      36.855518     -6.9307
-5      33.734512      54.015789      37.846157     -1.3397
-6      32.034454      48.832981      34.487392      3.0172
-6      35.688938      50.582306      33.257790      5.6432
-6      42.021469      53.425110      32.717716     11.7224
-7      37.071114      49.391083      32.919106     -2.4360
-7      35.916336      49.167511      39.490566     -2.1505
-7      38.474983      54.474209      36.382751     -2.0617
-7      39.937122      54.384331      33.555161     -1.8756
-7      40.134171      50.313793      32.115765     -1.5193
-7      41.916992      53.341263      32.293774     -1.6917
-7      44.520172      54.137257      31.686430     -1.5816
-7      47.971462      51.995594      38.010128     -1.4876
-7      43.100033      49.630310      34.010189     -2.7000
-7      49.043850      54.167366      31.143591     -1.1106
-7      45.793938      54.483414      36.938576     -2.3050
-7      47.297268      48.727421      35.513683     -1.4946
-7      35.396259      50.408291      33.204556     -2.5195
-7      40.028305      47.922367      35.971195     -2.5436
-7      40.900036      52.507442      38.379562     -2.6361
-8      35.716885      49.807205      36.356873      7.2651
-8      39.508770      51.315262      35.953396      4.9416
-8      43.466019      53.288342      34.753078      3.7893
-8      37.011269      51.180775      36.645210      5.6304
-8      47.362309      52.606815      33.822388      5.6563
-8      44.196251      50.824287      37.373085      2.7933
-8      43.699718      52.044266      36.180050      2.6674

$$$$
