@<TRIPOS>MOLECULE
bindingdb_similar_1x70_processed:58
 57 59 0 0 0
SMALL
GASTEIGER

@<TRIPOS>ATOM
      1 C          34.4363   49.4343   36.4518 C.ar    1  LIG1        0.1611
      2 C          34.6024   50.7953   36.5689 C.ar    1  LIG1        0.0119
      3 C          35.8667   51.3440   36.5500 C.ar    1  LIG1        0.1296
      4 C          36.9761   50.5315   36.4163 C.ar    1  LIG1       -0.0040
      5 C          36.8045   49.1687   36.3011 C.ar    1  LIG1       -0.0175
      6 C          35.5421   48.6180   36.3165 C.ar    1  LIG1        0.1588
      7 C          38.3827   51.1172   36.3871 C.3     1  LIG1        0.0187
      8 C          39.0174   51.2156   34.9818 C.3     1  LIG1       -0.0118
      9 N          38.1926   52.0994   34.0885 N.4     1  LIG1        0.2213
     10 C          40.4444   51.7971   35.0659 C.3     1  LIG1        0.0673
     11 C          41.4348   50.8657   35.7403 C.2     1  LIG1        0.2214
     12 O          41.1179   49.7236   36.0465 O.2     1  LIG1       -0.2754
     13 N          42.6576   51.3944   35.9740 N.am    1  LIG1       -0.2923
     14 C          43.0594   52.7696   35.5748 C.3     1  LIG1        0.0332
     15 C          44.4276   52.8228   34.8589 C.3     1  LIG1        0.0423
     16 C          43.6303   50.5784   36.7319 C.3     1  LIG1        0.0746
     17 C          45.0537   50.9216   36.3445 C.ar    1  LIG1        0.1513
     18 N          45.4008   51.9674   35.5524 N.ar    1  LIG1       -0.3044
     19 C          46.7647   51.9666   35.4387 C.ar    1  LIG1        0.2194
     20 N          47.2014   50.9448   36.1202 N.ar    1  LIG1       -0.1243
     21 N          46.1413   50.3018   36.6877 N.ar    1  LIG1       -0.1322
     22 F          35.3921   47.2906   36.1983 F       1  LIG1       -0.2025
     23 F          36.0031   52.6734   36.6633 F       1  LIG1       -0.2051
     24 C          47.6240   52.9177   34.6872 C.2     1  LIG1        0.2818
     25 F          33.2021   48.9095   36.4685 F       1  LIG1       -0.2024
     26 O          48.5140   52.4075   34.0158 O.2     1  LIG1       -0.2668
     27 N          47.4068   54.2424   34.8187 N.am    1  LIG1       -0.3040
     28 C          48.2316   55.2426   34.1106 C.3     1  LIG1        0.0266
     29 C          47.6225   56.6218   34.4168 C.3     1  LIG1       -0.0442
     30 C          48.2495   55.0808   32.5798 C.3     1  LIG1       -0.0442
     31 C          49.6765   55.2474   34.6391 C.3     1  LIG1       -0.0442
     32 H          39.0702   50.1189   34.4977 H       1  LIG1        0.0858
     33 H          33.8033   51.3884   36.6670 H       1  LIG1        0.0676
     34 H          37.6032   48.5750   36.2032 H       1  LIG1        0.0651
     35 H          39.0867   50.4251   37.0693 H       1  LIG1        0.0369
     36 H          38.3792   52.2112   36.8809 H       1  LIG1        0.0369
     37 H          37.3390   51.7956   34.0063 H       1  LIG1        0.1997
     38 H          38.5323   52.1495   33.2458 H       1  LIG1        0.1997
     39 H          38.1419   52.9503   34.4065 H       1  LIG1        0.1997
     40 H          40.3723   52.8321   35.6690 H       1  LIG1        0.0414
     41 H          40.8146   51.9855   33.9399 H       1  LIG1        0.0414
     42 H          42.3118   53.3408   34.8344 H       1  LIG1        0.0482
     43 H          43.1499   53.4174   36.5808 H       1  LIG1        0.0482
     44 H          44.2880   52.3986   33.7451 H       1  LIG1        0.0508
     45 H          44.7725   53.9678   34.7936 H       1  LIG1        0.0508
     46 H          43.4384   49.4153   36.5079 H       1  LIG1        0.0545
     47 H          43.4847   50.7820   37.9056 H       1  LIG1        0.0545
     48 H          46.7778   54.5218   35.3664 H       1  LIG1        0.1496
     49 H          47.5923   56.7893   35.6046 H       1  LIG1        0.0250
     50 H          46.5065   56.6686   33.9784 H       1  LIG1        0.0250
     51 H          48.2850   57.4856   33.9118 H       1  LIG1        0.0250
     52 H          48.7879   54.0545   32.2708 H       1  LIG1        0.0250
     53 H          48.8540   55.9950   32.0910 H       1  LIG1        0.0250
     54 H          47.1232   55.0839   32.1660 H       1  LIG1        0.0250
     55 H          49.6649   55.4091   35.8281 H       1  LIG1        0.0250
     56 H          50.2140   54.2060   34.3836 H       1  LIG1        0.0250
     57 H          50.2876   56.1416   34.1227 H       1  LIG1        0.0250
@<TRIPOS>BOND
     1     1     2   ar
     2     1    25    1
     3     2     3   ar
     4     2    33    1
     5     3     4   ar
     6     3    23    1
     7     4     5   ar
     8     4     7    1
     9     5     6   ar
    10     5    34    1
    11     6     1   ar
    12     6    22    1
    13     7    35    1
    14     7    36    1
    15     8     7    1
    16     8     9    1
    17     8    10    1
    18     8    32    1
    19     9    37    1
    20     9    38    1
    21     9    39    1
    22    10    11    1
    23    10    40    1
    24    10    41    1
    25    11    12    2
    26    11    13   am
    27    13    14    1
    28    13    16    1
    29    14    15    1
    30    14    42    1
    31    14    43    1
    32    15    18    1
    33    15    44    1
    34    15    45    1
    35    16    46    1
    36    16    47    1
    37    17    16    1
    38    17    18   ar
    39    18    19   ar
    40    19    20   ar
    41    19    24    1
    42    20    21   ar
    43    21    17   ar
    44    24    26    2
    45    24    27   am
    46    27    28    1
    47    27    48    1
    48    28    29    1
    49    28    30    1
    50    28    31    1
    51    29    49    1
    52    29    50    1
    53    29    51    1
    54    30    52    1
    55    30    53    1
    56    30    54    1
    57    31    55    1
    58    31    56    1
    59    31    57    1
