@<TRIPOS>MOLECULE
bindingdb_similar_1x70_processed:41
 51 54 0 0 0
SMALL
GASTEIGER

@<TRIPOS>ATOM
      1 C          34.4507   49.2659   36.3250 C.ar    1  LIG1        0.1611
      2 C          34.6283   50.5842   36.6778 C.ar    1  LIG1        0.0119
      3 C          35.8958   51.1224   36.7307 C.ar    1  LIG1        0.1296
      4 C          36.9936   50.3403   36.4307 C.ar    1  LIG1       -0.0040
      5 C          36.8120   49.0183   36.0865 C.ar    1  LIG1       -0.0175
      6 C          35.5466   48.4793   36.0297 C.ar    1  LIG1        0.1588
      7 C          38.4016   50.9189   36.4592 C.3     1  LIG1        0.0187
      8 C          39.0566   51.0890   35.0690 C.3     1  LIG1       -0.0118
      9 C          40.4416   51.7565   35.1929 C.3     1  LIG1        0.0673
     10 N          38.1990   51.9419   34.1754 N.4     1  LIG1        0.2213
     11 C          41.4626   50.9455   35.9686 C.2     1  LIG1        0.2214
     12 N          42.6637   51.5447   36.1276 N.am    1  LIG1       -0.2922
     13 O          41.1937   49.8370   36.4128 O.2     1  LIG1       -0.2754
     14 C          43.0322   52.8574   35.5315 C.3     1  LIG1        0.0348
     15 C          44.2620   52.7187   34.6043 C.3     1  LIG1        0.0593
     16 C          43.6785   50.8662   36.9609 C.3     1  LIG1        0.0742
     17 C          45.0637   51.1761   36.4269 C.ar    1  LIG1        0.1456
     18 N          45.2777   51.9917   35.3731 N.ar    1  LIG1       -0.2456
     19 N          46.6178   52.0831   35.1829 N.ar    1  LIG1       -0.1494
     20 C          47.1616   51.3436   36.1210 C.ar    1  LIG1        0.1816
     21 N          46.2196   50.7580   36.9002 N.ar    1  LIG1       -0.2097
     22 F          36.0489   52.4106   37.0727 F       1  LIG1       -0.2051
     23 F          33.2137   48.7539   36.2676 F       1  LIG1       -0.2024
     24 F          35.3853   47.1938   35.6832 F       1  LIG1       -0.2025
     25 C          48.5860   51.2085   36.3568 C.ar    1  LIG1        0.0209
     26 C          49.4919   52.0066   35.6822 C.ar    1  LIG1       -0.0510
     27 C          50.8359   51.9110   35.9545 C.ar    1  LIG1       -0.0611
     28 C          51.2889   51.0134   36.8953 C.ar    1  LIG1       -0.0617
     29 C          50.3947   50.2048   37.5601 C.ar    1  LIG1       -0.0611
     30 C          49.0498   50.3016   37.2930 C.ar    1  LIG1       -0.0510
     31 H          33.8354   51.1538   36.8938 H       1  LIG1        0.0676
     32 H          37.6046   48.4482   35.8707 H       1  LIG1        0.0651
     33 H          39.0785   50.1767   37.1149 H       1  LIG1        0.0369
     34 H          38.4050   51.9816   37.0163 H       1  LIG1        0.0369
     35 H          39.1805   50.0086   34.5619 H       1  LIG1        0.0858
     36 H          40.2727   52.8152   35.7340 H       1  LIG1        0.0414
     37 H          40.8524   51.9124   34.0754 H       1  LIG1        0.0414
     38 H          37.3745   51.5765   34.0537 H       1  LIG1        0.1997
     39 H          38.5619   52.0474   33.3473 H       1  LIG1        0.1997
     40 H          38.0763   52.7726   34.5255 H       1  LIG1        0.1997
     41 H          42.1880   53.4401   34.9146 H       1  LIG1        0.0483
     42 H          43.3592   53.5677   36.4418 H       1  LIG1        0.0483
     43 H          43.9654   52.1058   33.6159 H       1  LIG1        0.0525
     44 H          44.6772   53.8034   34.3025 H       1  LIG1        0.0525
     45 H          43.5099   49.6792   36.9289 H       1  LIG1        0.0545
     46 H          43.5811   51.2500   38.0938 H       1  LIG1        0.0545
     47 H          49.1668   52.6637   35.0024 H       1  LIG1        0.0625
     48 H          51.4855   52.4972   35.4709 H       1  LIG1        0.0618
     49 H          52.2665   50.9487   37.0956 H       1  LIG1        0.0618
     50 H          50.7232   49.5501   38.2409 H       1  LIG1        0.0618
     51 H          48.4026   49.7180   37.7834 H       1  LIG1        0.0625
@<TRIPOS>BOND
     1     1     2   ar
     2     1    23    1
     3     2     3   ar
     4     2    31    1
     5     3     4   ar
     6     3    22    1
     7     4     5   ar
     8     4     7    1
     9     5     6   ar
    10     5    32    1
    11     6     1   ar
    12     6    24    1
    13     7    33    1
    14     7    34    1
    15     8     7    1
    16     8     9    1
    17     8    10    1
    18     8    35    1
    19     9    11    1
    20     9    36    1
    21     9    37    1
    22    10    38    1
    23    10    39    1
    24    10    40    1
    25    11    12   am
    26    11    13    2
    27    12    14    1
    28    12    16    1
    29    14    15    1
    30    14    41    1
    31    14    42    1
    32    15    18    1
    33    15    43    1
    34    15    44    1
    35    16    45    1
    36    16    46    1
    37    17    16    1
    38    17    18   ar
    39    18    19   ar
    40    19    20   ar
    41    20    21   ar
    42    20    25    1
    43    21    17   ar
    44    25    26   ar
    45    26    27   ar
    46    26    47    1
    47    27    28   ar
    48    27    48    1
    49    28    29   ar
    50    28    49    1
    51    29    30   ar
    52    29    50    1
    53    30    25   ar
    54    30    51    1
