bindingdb_similar_1x70_processed:50
 OpenBabel04261912203D

 47 49  0  0  1  0  0  0  0  0999 V2000
   35.4831   48.4890   36.0665 C   0  0  0  0  0  0  0  0  0  0  0  0
   34.3847   49.2769   36.3497 C   0  0  0  0  0  0  0  0  0  0  0  0
   34.5623   50.5924   36.7122 C   0  0  0  0  0  0  0  0  0  0  0  0
   35.8310   51.1259   36.7874 C   0  0  0  0  0  0  0  0  0  0  0  0
   36.9325   50.3425   36.5023 C   0  0  0  0  0  0  0  0  0  0  0  0
   36.7499   49.0234   36.1467 C   0  0  0  0  0  0  0  0  0  0  0  0
   38.3446   50.9129   36.5620 C   0  0  0  0  0  0  0  0  0  0  0  0
   39.0350   51.0856   35.1898 C   0  0  2  0  0  0  0  0  0  0  0  0
   40.4138   51.7637   35.3292 C   0  0  0  0  0  0  0  0  0  0  0  0
   41.4306   50.9737   36.1291 C   0  0  0  0  0  0  0  0  0  0  0  0
   38.1899   51.9453   34.2931 N   0  3  0  0  0  0  0  0  0  0  0  0
   41.1742   49.8595   36.5647 O   0  0  0  0  0  0  0  0  0  0  0  0
   43.6142   50.9729   37.2052 C   0  0  0  0  0  0  0  0  0  0  0  0
   42.9807   52.8975   35.6920 C   0  0  0  0  0  0  0  0  0  0  0  0
   44.2101   52.6993   34.7787 C   0  0  0  0  0  0  0  0  0  0  0  0
   42.6111   51.6022   36.3203 N   0  0  0  0  0  0  0  0  0  0  0  0
   44.9879   51.1686   36.5992 C   0  0  0  0  0  0  0  0  0  0  0  0
   46.5737   51.8788   35.2447 C   0  0  0  0  0  0  0  0  0  0  0  0
   45.2380   51.9493   35.5146 N   0  0  0  0  0  0  0  0  0  0  0  0
   46.1136   50.6569   36.9865 N   0  0  0  0  0  0  0  0  0  0  0  0
   47.0973   51.0984   36.1424 N   0  0  0  0  0  0  0  0  0  0  0  0
   35.3221   47.2062   35.7104 F   0  0  0  0  0  0  0  0  0  0  0  0
   35.9795   52.4118   37.1382 F   0  0  0  0  0  0  0  0  0  0  0  0
   33.1463   48.7685   36.2723 F   0  0  0  0  0  0  0  0  0  0  0  0
   47.3322   52.5582   34.1112 C   0  0  0  0  0  0  0  0  0  0  0  0
   48.8424   52.2925   34.1767 C   0  0  0  0  0  0  0  0  0  0  0  0
   47.1387   53.9369   34.1310 F   0  0  0  0  0  0  0  0  0  0  0  0
   46.8723   52.1024   32.8785 F   0  0  0  0  0  0  0  0  0  0  0  0
   49.4906   52.9659   33.1509 F   0  0  0  0  0  0  0  0  0  0  0  0
   49.1084   50.9353   34.0438 F   0  0  0  0  0  0  0  0  0  0  0  0
   49.3690   52.7292   35.3862 F   0  0  0  0  0  0  0  0  0  0  0  0
   33.7683   51.1639   36.9196 H   0  0  0  0  0  0  0  0  0  0  0  0
   37.5434   48.4510   35.9404 H   0  0  0  0  0  0  0  0  0  0  0  0
   38.3441   51.9759   37.1193 H   0  0  0  0  0  0  0  0  0  0  0  0
   39.0038   50.1617   37.2247 H   0  0  0  0  0  0  0  0  0  0  0  0
   39.1700   50.0105   34.6749 H   0  0  0  0  0  0  0  0  0  0  0  0
   40.2253   52.8263   35.8546 H   0  0  0  0  0  0  0  0  0  0  0  0
   40.8398   51.9089   34.2162 H   0  0  0  0  0  0  0  0  0  0  0  0
   37.3693   51.5770   34.1597 H   0  0  0  0  0  0  0  0  0  0  0  0
   38.5662   52.0560   33.4720 H   0  0  0  0  0  0  0  0  0  0  0  0
   38.0593   52.7729   34.6494 H   0  0  0  0  0  0  0  0  0  0  0  0
   43.3987   49.7975   37.3110 H   0  0  0  0  0  0  0  0  0  0  0  0
   43.5718   51.4827   38.2905 H   0  0  0  0  0  0  0  0  0  0  0  0
   42.1459   53.4566   35.0412 H   0  0  0  0  0  0  0  0  0  0  0  0
   43.3038   53.6437   36.5740 H   0  0  0  0  0  0  0  0  0  0  0  0
   43.8893   52.0777   33.8036 H   0  0  0  0  0  0  0  0  0  0  0  0
   44.6323   53.7723   34.4490 H   0  0  0  0  0  0  0  0  0  0  0  0
  1  2  2  0  0  0  0
  1  6  1  0  0  0  0
  1 22  1  0  0  0  0
  2  3  1  0  0  0  0
  2 24  1  0  0  0  0
  3  4  2  0  0  0  0
  3 32  1  0  0  0  0
  4  5  1  0  0  0  0
  4 23  1  0  0  0  0
  5  6  2  0  0  0  0
  5  7  1  0  0  0  0
  6 33  1  0  0  0  0
  7 34  1  0  0  0  0
  7 35  1  0  0  0  0
  8  7  1  0  0  0  0
  8  9  1  0  0  0  0
  8 11  1  0  0  0  0
  8 36  1  6  0  0  0
  9 10  1  0  0  0  0
  9 37  1  0  0  0  0
  9 38  1  0  0  0  0
 10 12  2  0  0  0  0
 10 16  1  0  0  0  0
 11 39  1  0  0  0  0
 11 40  1  0  0  0  0
 11 41  1  0  0  0  0
 13 16  1  0  0  0  0
 13 17  1  0  0  0  0
 13 42  1  0  0  0  0
 13 43  1  0  0  0  0
 14 15  1  0  0  0  0
 14 44  1  0  0  0  0
 14 45  1  0  0  0  0
 15 19  1  0  0  0  0
 15 46  1  0  0  0  0
 15 47  1  0  0  0  0
 16 14  1  0  0  0  0
 18 21  2  0  0  0  0
 18 25  1  0  0  0  0
 19 17  1  0  0  0  0
 19 18  1  0  0  0  0
 20 17  2  0  0  0  0
 20 21  1  0  0  0  0
 25 26  1  0  0  0  0
 25 27  1  0  0  0  0
 25 28  1  0  0  0  0
 26 29  1  0  0  0  0
 26 30  1  0  0  0  0
 26 31  1  0  0  0  0
M  CHG  1  11   1
M  END
>  <Mean(IC50 fixed2)>
71

>  <First(BindingDB Ligand Name)>
Triazolopiperazine Analogue 27

>  <Concatenate(Target Name Assigned by Curator or DataSource)>
Dipeptidyl Peptidase IV (DPP-IV), Dipeptidyl Peptidase IV (DPP-IV)

>  <First(Target Source Organism According to Curator or DataSource)>
Homo sapiens (human)

>  <First(Curation/DataSource)>
Curated from the literature by BindingDB

>  <First(Article DOI)>
10.1021/jm0493156

>  <Mean(PMID)>
17102186.5

>  <First(Authors)>
Kim, D; Wang, L; Beconi, M; Eiermann, GJ; Fisher, MH; He, H; Hickey, GJ; Kowalchick, JE; Leiting, B; Lyons, K; Marsilio, F; McCann, ME; Patel, RA; Petrov, A; Scapin, G; Patel, SB; Roy, RS; Wu, JK; Wyvratt, MJ; Zhang, BB; Zhu, L; Thornberry, NA; Weber, AE

>  <First(Institution)>
Merck Research Laboratories

>  <First(Link to Ligand in BindingDB)>
http://www.bindingdb.org/bind/chemsearch/marvin/MolStructure.jsp?monomerid=11163

>  <First(Link to Ligand-Target Pair in BindingDB)>
http://www.bindingdb.org/jsp/dbsearch/PrimarySearch_ki.jsp?energyterm=kJ/mole&tag=r21&monomerid=11163&enzyme=Dipeptidyl+Peptidase+IV+%28DPP-IV%29&column=ki&startPg=0&Increment=50&submit=Search

>  <Mean(PubChem CID)>
11306467.5

>  <Mean(PubChem SID)>
75308129.5

>  <First(ZINC ID of Ligand)>
ZINC14947688

>  <Concatenate*(UniProt (SwissProt) Entry Name of Target Chain)>
DPP4_HUMAN, DPP4_HUMAN

>  <Mean(Number of Protein Chains in Target (>1 implies a multichain complex))>
1

>  <Median(pIC50)>
7.14874165128092

>  <Journal>
JMedChem2005

>  <Activity Classes>
7.14874165128092

>  <Conformer_cresset>
1

>  <Similarity_cresset>
0.838

>  <Favorite_cresset>
false

>  <Activity (Median(pIC50))_cresset>
7.15

>  <LE (Median(pIC50))_cresset>
0.323

>  <LipE (Median(pIC50))_cresset>
3.7

>  <Tags_cresset>
training

>  <Confs_cresset>
2

>  <Conf#_cresset>
1

>  <Alns_cresset>
2

>  <MW_cresset>
458.3

>  <#Atoms_cresset>
31

>  <SlogP_cresset>
3.5

>  <TPSA_cresset>
78.7

>  <Flexibility_cresset>
5.9

>  <#RB_cresset>
7

>  <Rof5_cresset>
0

>  <Filename_cresset>
bindingdb_similar_1x70_processed.sdf

>  <Notes_cresset>
27

>  <Selected Alignment_cresset>
true

>  <Alignment Cluster Centre_cresset>
true

>  <_cresset_fieldpoints>
-5      47.780754      49.893158      37.396679    -12.1090
-5      40.719296      48.163754      37.004654     -6.9324
-5      32.731503      45.979336      35.660149     -2.5909
-6      42.009361      53.438465      32.846844     11.6474
-6      35.702454      50.554455      33.305492      5.6089
-7      39.963856      47.931995      36.070709     -2.5479
-7      40.802303      52.495987      38.500851     -2.6348
-7      38.419144      54.481197      36.478844     -2.0538
-7      39.927914      54.396687      33.654228     -1.8752
-7      40.150028      50.337444      32.211140     -1.5166
-7      41.934338      53.345837      32.422447     -1.6903
-7      44.560261      54.163128      31.868168     -1.6156
-7      43.079628      49.636532      34.160286     -2.7104
-7      45.773155      54.465904      37.123260     -2.4194
-7      48.670090      50.014080      37.304287     -1.8849
-7      48.021305      51.638783      38.231598     -1.8595
-7      47.413166      48.771370      35.950768     -1.8634
-7      48.141705      49.190392      36.717506     -1.8389
-7      37.064327      49.418495      32.963314     -2.4181
-7      35.915432      48.981308      39.503391     -2.1446
-7      35.348534      50.431274      33.282654     -2.5486
-7      49.690758      55.927917      34.645580     -1.2634
-7      47.684650      54.653404      30.959431     -1.2676
-7      48.964298      50.752106      30.740326     -1.2591
-7      52.367950      51.681534      34.312439     -1.1336
-8      35.655037      49.806519      36.424259      7.2636
-8      39.458088      51.325420      36.047268      4.9349
-8      43.429749      53.292671      34.903561      3.7941
-8      44.117916      50.814461      37.543930      2.7926
-8      36.951447      51.182266      36.722488      5.6139
-8      48.436295      52.439850      34.038994      6.4212

$$$$
