@<TRIPOS>MOLECULE
bindingdb_similar_1x70_processed:32
 44 46 0 0 0
SMALL
GASTEIGER

@<TRIPOS>ATOM
      1 C          34.4473   49.2626   36.3118 C.ar    1  LIG1        0.1598
      2 C          34.6264   50.5962   36.6028 C.ar    1  LIG1       -0.0050
      3 C          35.8960   51.1283   36.6452 C.ar    1  LIG1        0.0472
      4 C          36.9918   50.3281   36.4030 C.ar    1  LIG1       -0.0209
      5 C          36.8106   48.9965   36.0999 C.ar    1  LIG1       -0.0188
      6 C          35.5421   48.4627   36.0465 C.ar    1  LIG1        0.1587
      7 C          38.3918   50.9209   36.4573 C.3     1  LIG1        0.0173
      8 C          39.0711   51.0900   35.0803 C.3     1  LIG1       -0.0119
      9 N          38.2132   51.9487   34.1923 N.4     1  LIG1        0.2213
     10 C          40.4527   51.7636   35.2205 C.3     1  LIG1        0.0673
     11 C          41.4791   50.9679   36.0066 C.2     1  LIG1        0.2214
     12 O          41.2235   49.8535   36.4434 O.2     1  LIG1       -0.2754
     13 N          42.6654   51.5923   36.1831 N.am    1  LIG1       -0.2923
     14 C          43.0306   52.8931   35.5650 C.3     1  LIG1        0.0332
     15 C          44.2406   52.7021   34.6231 C.3     1  LIG1        0.0422
     16 C          43.6887   50.9624   37.0450 C.3     1  LIG1        0.0746
     17 C          45.0531   51.1577   36.4145 C.ar    1  LIG1        0.1512
     18 N          45.2842   51.9456   35.3316 N.ar    1  LIG1       -0.3048
     19 C          46.6154   51.8769   35.0385 C.ar    1  LIG1        0.2376
     20 N          47.1563   51.0917   35.9207 N.ar    1  LIG1       -0.1250
     21 N          46.1865   50.6446   36.7784 N.ar    1  LIG1       -0.1324
     22 C          47.3430   52.5649   33.8958 C.3     1  LIG1        0.4524
     23 F          46.8817   52.1129   32.6639 F       1  LIG1       -0.1632
     24 F          48.7111   52.3184   33.9394 F       1  LIG1       -0.1632
     25 F          47.1729   53.9448   33.9271 F       1  LIG1       -0.1632
     26 CL         36.1166   52.8153   37.0045 Cl      1  LIG1       -0.0832
     27 F          33.2095   48.7475   36.2854 F       1  LIG1       -0.2024
     28 F          35.3752   47.1700   35.7291 F       1  LIG1       -0.2025
     29 H          33.8344   51.1791   36.7841 H       1  LIG1        0.0662
     30 H          37.6041   48.4165   35.9145 H       1  LIG1        0.0650
     31 H          38.3484   51.9949   36.9912 H       1  LIG1        0.0369
     32 H          39.0618   50.1989   37.1417 H       1  LIG1        0.0369
     33 H          39.2017   50.0127   34.5691 H       1  LIG1        0.0858
     34 H          37.3875   51.5869   34.0684 H       1  LIG1        0.1997
     35 H          38.5742   52.0608   33.3649 H       1  LIG1        0.1997
     36 H          38.0896   52.7773   34.5473 H       1  LIG1        0.1997
     37 H          40.2636   52.8189   35.7603 H       1  LIG1        0.0414
     38 H          40.8700   51.9212   34.1061 H       1  LIG1        0.0414
     39 H          42.1819   53.4685   34.9465 H       1  LIG1        0.0482
     40 H          43.3787   53.6196   36.4545 H       1  LIG1        0.0482
     41 H          43.8969   52.0831   33.6540 H       1  LIG1        0.0508
     42 H          44.6537   53.7771   34.2871 H       1  LIG1        0.0508
     43 H          43.4750   49.7875   37.1612 H       1  LIG1        0.0545
     44 H          43.6722   51.4803   38.1274 H       1  LIG1        0.0545
@<TRIPOS>BOND
     1     1     2   ar
     2     1    27    1
     3     2     3   ar
     4     2    29    1
     5     3     4   ar
     6     3    26    1
     7     4     5   ar
     8     4     7    1
     9     5     6   ar
    10     5    30    1
    11     6     1   ar
    12     6    28    1
    13     7    31    1
    14     7    32    1
    15     8     7    1
    16     8     9    1
    17     8    10    1
    18     8    33    1
    19     9    34    1
    20     9    35    1
    21     9    36    1
    22    10    11    1
    23    10    37    1
    24    10    38    1
    25    11    12    2
    26    11    13   am
    27    13    14    1
    28    13    16    1
    29    14    15    1
    30    14    39    1
    31    14    40    1
    32    15    18    1
    33    15    41    1
    34    15    42    1
    35    16    43    1
    36    16    44    1
    37    17    16    1
    38    17    18   ar
    39    18    19   ar
    40    19    20   ar
    41    19    22    1
    42    20    21   ar
    43    21    17   ar
    44    22    23    1
    45    22    24    1
    46    22    25    1
