@<TRIPOS>MOLECULE
bindingdb_similar_1x70_processed:54
 50 52 0 0 0
SMALL
GASTEIGER

@<TRIPOS>ATOM
      1 C          34.4431   49.2616   36.3142 C.ar    1  LIG1        0.1611
      2 C          34.6214   50.5801   36.6655 C.ar    1  LIG1        0.0119
      3 C          35.8888   51.1173   36.7226 C.ar    1  LIG1        0.1296
      4 C          36.9865   50.3325   36.4297 C.ar    1  LIG1       -0.0040
      5 C          36.8054   49.0111   36.0844 C.ar    1  LIG1       -0.0175
      6 C          35.5394   48.4737   36.0229 C.ar    1  LIG1        0.1588
      7 F          35.3777   47.1886   35.6765 F       1  LIG1       -0.2025
      8 F          33.2057   48.7494   36.2562 F       1  LIG1       -0.2024
      9 F          36.0404   52.4057   37.0619 F       1  LIG1       -0.2051
     10 C          38.3973   50.9035   36.4669 C.3     1  LIG1        0.0187
     11 C          39.0656   51.0664   35.0823 C.3     1  LIG1       -0.0118
     12 C          40.4482   51.7368   35.2137 C.3     1  LIG1        0.0673
     13 N          38.2139   51.9249   34.1861 N.4     1  LIG1        0.2213
     14 C          41.4750   50.9571   36.0139 C.2     1  LIG1        0.2216
     15 N          42.6536   51.5952   36.1927 N.am    1  LIG1       -0.2895
     16 C          43.0067   52.8923   35.5626 C.3     1  LIG1        0.0360
     17 C          44.1935   52.7048   34.5877 C.3     1  LIG1        0.0505
     18 C          43.6859   50.9697   37.0423 C.3     1  LIG1        0.0831
     19 N          46.1702   50.6793   36.7711 N.ar    1  LIG1       -0.1321
     20 C          45.0410   51.1947   36.4019 C.ar    1  LIG1        0.1543
     21 N          45.2679   51.9843   35.3127 N.ar    1  LIG1       -0.3018
     22 C          46.6079   51.9011   35.0326 C.ar    1  LIG1        0.2379
     23 N          47.1400   51.1164   35.9203 N.ar    1  LIG1       -0.1250
     24 C          47.3768   52.5562   33.8977 C.3     1  LIG1        0.4524
     25 F          46.9106   52.1078   32.6677 F       1  LIG1       -0.1632
     26 F          47.2770   53.9414   33.9233 F       1  LIG1       -0.1632
     27 F          48.7341   52.2549   33.9549 F       1  LIG1       -0.1632
     28 O          41.2305   49.8408   36.4523 O.2     1  LIG1       -0.2754
     29 C          44.4869   54.0809   33.9560 C.3     1  LIG1       -0.0427
     30 C          43.6199   51.4861   38.4903 C.3     1  LIG1       -0.0393
     31 H          33.8288   51.1514   36.8775 H       1  LIG1        0.0676
     32 H          37.5990   48.4412   35.8716 H       1  LIG1        0.0651
     33 H          38.3985   51.9697   37.0165 H       1  LIG1        0.0369
     34 H          39.0690   50.1609   37.1288 H       1  LIG1        0.0369
     35 H          39.1897   49.9856   34.5762 H       1  LIG1        0.0858
     36 H          40.2495   52.7971   35.7394 H       1  LIG1        0.0414
     37 H          40.8702   51.8824   34.0987 H       1  LIG1        0.0414
     38 H          37.3884   51.5630   34.0607 H       1  LIG1        0.1997
     39 H          38.5818   52.0290   33.3601 H       1  LIG1        0.1997
     40 H          38.0920   52.7573   34.5345 H       1  LIG1        0.1997
     41 H          42.1193   53.4520   34.9874 H       1  LIG1        0.0485
     42 H          43.3699   53.6356   36.4303 H       1  LIG1        0.0485
     43 H          43.8142   51.9838   33.7067 H       1  LIG1        0.0541
     44 H          43.4914   49.7864   37.0701 H       1  LIG1        0.0579
     45 H          43.4751   54.6231   33.6042 H       1  LIG1        0.0250
     46 H          45.0451   54.7854   34.7515 H       1  LIG1        0.0250
     47 H          45.1636   53.9367   32.9764 H       1  LIG1        0.0250
     48 H          42.5107   51.3306   38.9217 H       1  LIG1        0.0252
     49 H          44.3980   50.8712   39.1657 H       1  LIG1        0.0252
     50 H          43.9017   52.6518   38.5321 H       1  LIG1        0.0252
@<TRIPOS>BOND
     1     1     2   ar
     2     1     8    1
     3     2     3   ar
     4     2    31    1
     5     3     4   ar
     6     3     9    1
     7     4     5   ar
     8     4    10    1
     9     5     6   ar
    10     5    32    1
    11     6     1   ar
    12     6     7    1
    13    10    33    1
    14    10    34    1
    15    11    10    1
    16    11    12    1
    17    11    13    1
    18    11    35    1
    19    12    14    1
    20    12    36    1
    21    12    37    1
    22    13    38    1
    23    13    39    1
    24    13    40    1
    25    14    15   am
    26    14    28    2
    27    15    16    1
    28    15    18    1
    29    16    17    1
    30    16    41    1
    31    16    42    1
    32    17    21    1
    33    17    29    1
    34    17    43    1
    35    18    30    1
    36    18    44    1
    37    19    20   ar
    38    20    18    1
    39    20    21   ar
    40    21    22   ar
    41    22    23   ar
    42    22    24    1
    43    23    19   ar
    44    24    25    1
    45    24    26    1
    46    24    27    1
    47    29    45    1
    48    29    46    1
    49    29    47    1
    50    30    48    1
    51    30    49    1
    52    30    50    1
