@<TRIPOS>MOLECULE
bindingdb_similar_1x70_processed:33
 47 49 0 0 0
SMALL
GASTEIGER

@<TRIPOS>ATOM
      1 C          34.3986   49.5271   36.4265 C.ar    1  LIG1       -0.0501
      2 C          35.4645   48.6906   36.1781 C.ar    1  LIG1        0.0551
      3 C          36.7446   49.1972   36.2054 C.ar    1  LIG1       -0.0467
      4 C          36.9648   50.5272   36.4886 C.ar    1  LIG1       -0.0415
      5 C          35.8941   51.3557   36.7395 C.ar    1  LIG1       -0.0584
      6 C          34.6120   50.8575   36.7057 C.ar    1  LIG1       -0.0610
      7 C          38.3786   51.0859   36.5087 C.3     1  LIG1        0.0159
      8 C          39.0499   51.1917   35.1204 C.3     1  LIG1       -0.0119
      9 N          38.2106   52.0390   34.2015 N.4     1  LIG1        0.2213
     10 C          40.4466   51.8389   35.2252 C.3     1  LIG1        0.0673
     11 C          41.4603   51.0473   36.0302 C.2     1  LIG1        0.2214
     12 O          41.1862   49.9513   36.5025 O.2     1  LIG1       -0.2754
     13 N          42.6600   51.6520   36.1816 N.am    1  LIG1       -0.2923
     14 C          43.0530   52.9194   35.5131 C.3     1  LIG1        0.0332
     15 C          44.2610   52.6672   34.5828 C.3     1  LIG1        0.0422
     16 C          43.6687   51.0298   37.0649 C.3     1  LIG1        0.0746
     17 C          45.0366   51.1705   36.4302 C.ar    1  LIG1        0.1512
     18 N          45.2861   51.9128   35.3199 N.ar    1  LIG1       -0.3048
     19 C          46.6152   51.8016   35.0312 C.ar    1  LIG1        0.2376
     20 N          47.1375   51.0363   35.9420 N.ar    1  LIG1       -0.1250
     21 N          46.1568   50.6438   36.8139 N.ar    1  LIG1       -0.1324
     22 C          47.3570   52.4314   33.8645 C.3     1  LIG1        0.4524
     23 F          46.8837   51.9458   32.6501 F       1  LIG1       -0.1632
     24 F          48.7191   52.1563   33.9174 F       1  LIG1       -0.1632
     25 F          47.2165   53.8149   33.8462 F       1  LIG1       -0.1632
     26 C          35.2530   47.2182   35.8725 C.3     1  LIG1        0.4174
     27 F          33.9594   46.7976   36.1645 F       1  LIG1       -0.1659
     28 F          35.4948   46.9241   34.5345 F       1  LIG1       -0.1659
     29 F          36.1165   46.4364   36.6322 F       1  LIG1       -0.1659
     30 H          33.4663   49.1659   36.4042 H       1  LIG1        0.0623
     31 H          37.5205   48.5953   36.0169 H       1  LIG1        0.0626
     32 H          36.0486   52.3221   36.9451 H       1  LIG1        0.0620
     33 H          33.8362   51.4622   36.8840 H       1  LIG1        0.0618
     34 H          38.3756   52.1754   37.0125 H       1  LIG1        0.0368
     35 H          39.0338   50.3610   37.2042 H       1  LIG1        0.0368
     36 H          39.1563   50.0928   34.6502 H       1  LIG1        0.0858
     37 H          37.3804   51.6890   34.0812 H       1  LIG1        0.1997
     38 H          38.5779   52.1232   33.3742 H       1  LIG1        0.1997
     39 H          38.1004   52.8789   34.5317 H       1  LIG1        0.1997
     40 H          40.2877   52.9180   35.7262 H       1  LIG1        0.0414
     41 H          40.8602   51.9415   34.1031 H       1  LIG1        0.0414
     42 H          42.2179   53.4854   34.8681 H       1  LIG1        0.0482
     43 H          43.4129   53.6744   36.3737 H       1  LIG1        0.0482
     44 H          43.9050   52.0219   33.6358 H       1  LIG1        0.0508
     45 H          44.6995   53.7191   34.2084 H       1  LIG1        0.0508
     46 H          43.4280   49.8639   37.2184 H       1  LIG1        0.0545
     47 H          43.6638   51.5832   38.1302 H       1  LIG1        0.0545
@<TRIPOS>BOND
     1     1     2   ar
     2     1    30    1
     3     2     3   ar
     4     2    26    1
     5     3     4   ar
     6     3    31    1
     7     4     5   ar
     8     4     7    1
     9     5     6   ar
    10     5    32    1
    11     6     1   ar
    12     6    33    1
    13     7    34    1
    14     7    35    1
    15     8     7    1
    16     8     9    1
    17     8    10    1
    18     8    36    1
    19     9    37    1
    20     9    38    1
    21     9    39    1
    22    10    11    1
    23    10    40    1
    24    10    41    1
    25    11    12    2
    26    11    13   am
    27    13    14    1
    28    13    16    1
    29    14    15    1
    30    14    42    1
    31    14    43    1
    32    15    18    1
    33    15    44    1
    34    15    45    1
    35    16    46    1
    36    16    47    1
    37    17    16    1
    38    17    18   ar
    39    18    19   ar
    40    19    20   ar
    41    19    22    1
    42    20    21   ar
    43    21    17   ar
    44    22    23    1
    45    22    24    1
    46    22    25    1
    47    26    27    1
    48    26    28    1
    49    26    29    1
