@<TRIPOS>MOLECULE
bindingdb_similar_1x70_processed:68
 53 56 0 0 0
SMALL
GASTEIGER

@<TRIPOS>ATOM
      1 C          34.4698   49.2452   36.3235 C.ar    1  LIG1        0.1611
      2 C          34.6269   50.5691   36.6647 C.ar    1  LIG1        0.0119
      3 C          35.8863   51.1264   36.7198 C.ar    1  LIG1        0.1296
      4 C          36.9988   50.3591   36.4334 C.ar    1  LIG1       -0.0040
      5 C          36.8370   49.0315   36.1007 C.ar    1  LIG1       -0.0175
      6 C          35.5797   48.4729   36.0423 C.ar    1  LIG1        0.1588
      7 C          38.4007   50.9543   36.4623 C.3     1  LIG1        0.0187
      8 C          39.0651   51.1072   35.0743 C.3     1  LIG1       -0.0118
      9 C          40.4479   51.7830   35.1870 C.3     1  LIG1        0.0673
     10 N          38.2049   51.9415   34.1650 N.4     1  LIG1        0.2213
     11 C          41.4733   50.9783   35.9636 C.2     1  LIG1        0.2216
     12 N          42.6556   51.6028   36.1660 N.am    1  LIG1       -0.2877
     13 O          41.2179   49.8527   36.3706 O.2     1  LIG1       -0.2754
     14 C          43.0268   52.9018   35.5389 C.3     1  LIG1        0.0351
     15 C          44.2555   52.7192   34.6206 C.3     1  LIG1        0.0593
     16 C          43.6538   50.9489   37.0454 C.3     1  LIG1        0.1049
     17 C          45.0242   51.1355   36.4283 C.ar    1  LIG1        0.1505
     18 N          45.2473   51.9351   35.3641 N.ar    1  LIG1       -0.2453
     19 N          46.5704   51.8776   35.0770 N.ar    1  LIG1       -0.1453
     20 C          47.0909   51.0719   35.9601 C.ar    1  LIG1        0.2548
     21 N          46.1619   50.5898   36.8132 N.ar    1  LIG1       -0.2060
     22 F          36.0147   52.4199   37.0507 F       1  LIG1       -0.2051
     23 F          33.2402   48.7139   36.2641 F       1  LIG1       -0.2024
     24 F          35.4388   47.1820   35.7077 F       1  LIG1       -0.2025
     25 C          48.5633   50.7204   36.0157 C.3     1  LIG1        0.4540
     26 F          49.3520   51.8205   35.6984 F       1  LIG1       -0.1631
     27 F          48.9435   50.2853   37.2806 F       1  LIG1       -0.1631
     28 F          48.8710   49.7093   35.1130 F       1  LIG1       -0.1631
     29 C          43.5989   51.4747   38.4939 C.3     1  LIG1        0.0689
     30 N          42.3401   51.1698   39.1832 N.ar    1  LIG1       -0.2498
     31 N          42.1940   50.1627   40.0810 N.ar    1  LIG1       -0.1583
     32 C          40.9553   50.2090   40.4795 C.ar    1  LIG1        0.1379
     33 N          40.2731   51.2062   39.8830 N.ar    1  LIG1       -0.2228
     34 C          41.1425   51.7954   39.0835 C.ar    1  LIG1        0.1143
     35 H          39.1998   50.0195   34.5858 H       1  LIG1        0.0858
     36 H          43.4357   49.7695   37.0762 H       1  LIG1        0.0600
     37 H          33.8246   51.1294   36.8707 H       1  LIG1        0.0676
     38 H          37.6388   48.4708   35.8938 H       1  LIG1        0.0651
     39 H          39.0807   50.2298   37.1342 H       1  LIG1        0.0369
     40 H          38.3872   52.0286   36.9969 H       1  LIG1        0.0369
     41 H          40.2755   52.8443   35.7202 H       1  LIG1        0.0414
     42 H          40.8526   51.9299   34.0667 H       1  LIG1        0.0414
     43 H          37.3761   51.5820   34.0575 H       1  LIG1        0.1997
     44 H          38.5604   52.0224   33.3312 H       1  LIG1        0.1997
     45 H          38.0872   52.7842   34.4879 H       1  LIG1        0.1997
     46 H          42.1889   53.4602   34.8916 H       1  LIG1        0.0483
     47 H          43.3484   53.6553   36.4147 H       1  LIG1        0.0483
     48 H          43.9322   52.1185   33.6333 H       1  LIG1        0.0525
     49 H          44.7086   53.7883   34.3178 H       1  LIG1        0.0525
     50 H          44.4878   50.9607   39.1152 H       1  LIG1        0.0532
     51 H          43.7711   52.6615   38.5069 H       1  LIG1        0.0532
     52 H          40.5582   49.5804   41.1482 H       1  LIG1        0.1065
     53 H          40.9473   52.5799   38.4949 H       1  LIG1        0.1044
@<TRIPOS>BOND
     1     1     2   ar
     2     1    23    1
     3     2     3   ar
     4     2    37    1
     5     3     4   ar
     6     3    22    1
     7     4     5   ar
     8     4     7    1
     9     5     6   ar
    10     5    38    1
    11     6     1   ar
    12     6    24    1
    13     7    39    1
    14     7    40    1
    15     8     7    1
    16     8     9    1
    17     8    10    1
    18     8    35    1
    19     9    11    1
    20     9    41    1
    21     9    42    1
    22    10    43    1
    23    10    44    1
    24    10    45    1
    25    11    12   am
    26    11    13    2
    27    12    14    1
    28    12    16    1
    29    14    15    1
    30    14    46    1
    31    14    47    1
    32    15    18    1
    33    15    48    1
    34    15    49    1
    35    16    29    1
    36    16    36    1
    37    17    16    1
    38    17    18   ar
    39    18    19   ar
    40    19    20   ar
    41    20    21   ar
    42    20    25    1
    43    21    17   ar
    44    25    26    1
    45    25    27    1
    46    25    28    1
    47    29    30    1
    48    29    50    1
    49    29    51    1
    50    30    31   ar
    51    31    32   ar
    52    32    33   ar
    53    32    52    1
    54    33    34   ar
    55    34    30   ar
    56    34    53    1
