@<TRIPOS>MOLECULE
Copy of bindingdb_similar_1x70_processed:75
 63 66 0 0 0
SMALL
GASTEIGER

@<TRIPOS>ATOM
      1 C          34.4437   49.2503   36.3227 C.ar    1  LIG1        0.1611
      2 C          34.6196   50.5714   36.6656 C.ar    1  LIG1        0.0119
      3 C          35.8867   51.1112   36.7186 C.ar    1  LIG1        0.1296
      4 C          36.9885   50.3293   36.4298 C.ar    1  LIG1       -0.0040
      5 C          36.8074   49.0053   36.0927 C.ar    1  LIG1       -0.0175
      6 C          35.5422   48.4640   36.0357 C.ar    1  LIG1        0.1588
      7 F          35.3830   47.1760   35.6989 F       1  LIG1       -0.2025
      8 F          33.2071   48.7354   36.2669 F       1  LIG1       -0.2024
      9 F          36.0329   52.4026   37.0510 F       1  LIG1       -0.2051
     10 C          38.3983   50.9070   36.4642 C.3     1  LIG1        0.0187
     11 C          39.0716   51.0659   35.0811 C.3     1  LIG1       -0.0118
     12 C          40.4534   51.7448   35.2022 C.3     1  LIG1        0.0673
     13 N          38.2146   51.9110   34.1775 N.4     1  LIG1        0.2213
     14 C          41.4851   50.9713   36.0018 C.2     1  LIG1        0.2216
     15 N          42.6665   51.6072   36.1723 N.am    1  LIG1       -0.2892
     16 C          43.0230   52.8954   35.5202 C.3     1  LIG1        0.0335
     17 C          44.2457   52.6877   34.6005 C.3     1  LIG1        0.0422
     18 C          43.6797   50.9854   37.0570 C.3     1  LIG1        0.0898
     19 N          46.1768   50.6693   36.8068 N.ar    1  LIG1       -0.1321
     20 C          45.0461   51.1795   36.4309 C.ar    1  LIG1        0.1547
     21 N          45.2829   51.9479   35.3350 N.ar    1  LIG1       -0.3046
     22 C          46.6154   51.8745   35.0511 C.ar    1  LIG1        0.2377
     23 N          47.1513   51.1025   35.9478 N.ar    1  LIG1       -0.1250
     24 C          47.3482   52.5475   33.9029 C.3     1  LIG1        0.4524
     25 F          47.1766   53.9275   33.9162 F       1  LIG1       -0.1632
     26 F          48.7158   52.3020   33.9575 F       1  LIG1       -0.1632
     27 F          46.8926   52.0798   32.6748 F       1  LIG1       -0.1632
     28 O          41.2374   49.8614   36.4545 O.2     1  LIG1       -0.2754
     29 C          43.6265   51.5022   38.5116 C.3     1  LIG1       -0.0018
     30 C          42.3189   51.2141   39.2325 C.ar    1  LIG1       -0.0441
     31 C          41.2962   52.1362   39.2128 C.ar    1  LIG1       -0.0468
     32 C          40.1045   51.8697   39.8492 C.ar    1  LIG1        0.0556
     33 C          39.9403   50.6699   40.5060 C.ar    1  LIG1       -0.0385
     34 C          40.9545   49.7384   40.5283 C.ar    1  LIG1        0.0556
     35 C          42.1445   50.0195   39.8950 C.ar    1  LIG1       -0.0468
     36 C          40.7300   48.4097   41.2294 C.3     1  LIG1        0.4174
     37 F          41.8683   47.6099   41.2633 F       1  LIG1       -0.1659
     38 F          39.7345   47.6846   40.5808 F       1  LIG1       -0.1659
     39 F          40.3217   48.5950   42.5447 F       1  LIG1       -0.1659
     40 C          38.9753   52.8852   39.8320 C.3     1  LIG1        0.4174
     41 F          37.7437   52.2744   39.6182 F       1  LIG1       -0.1659
     42 F          39.1330   53.8419   38.8326 F       1  LIG1       -0.1659
     43 F          38.9053   53.5573   41.0481 F       1  LIG1       -0.1659
     44 H          33.8254   51.1420   36.8746 H       1  LIG1        0.0676
     45 H          37.6006   48.4336   35.8833 H       1  LIG1        0.0651
     46 H          39.0675   50.1679   37.1314 H       1  LIG1        0.0369
     47 H          38.3997   51.9775   37.0069 H       1  LIG1        0.0369
     48 H          39.2077   49.9825   34.5835 H       1  LIG1        0.0858
     49 H          40.2674   52.8146   35.7138 H       1  LIG1        0.0414
     50 H          40.8683   51.8744   34.0834 H       1  LIG1        0.0414
     51 H          37.3913   51.5441   34.0555 H       1  LIG1        0.1997
     52 H          38.5790   52.0124   33.3500 H       1  LIG1        0.1997
     53 H          38.0875   52.7447   34.5195 H       1  LIG1        0.1997
     54 H          42.1780   53.4361   34.8672 H       1  LIG1        0.0482
     55 H          43.3480   53.6645   36.3815 H       1  LIG1        0.0482
     56 H          43.9141   52.0487   33.6405 H       1  LIG1        0.0508
     57 H          44.6592   53.7570   34.2478 H       1  LIG1        0.0508
     58 H          43.4796   49.8025   37.0909 H       1  LIG1        0.0585
     59 H          44.5197   50.9789   39.1186 H       1  LIG1        0.0335
     60 H          43.8350   52.6836   38.5174 H       1  LIG1        0.0335
     61 H          41.4185   53.0016   38.7271 H       1  LIG1        0.0626
     62 H          39.0750   50.4705   40.9661 H       1  LIG1        0.0629
     63 H          42.8851   49.3484   39.9074 H       1  LIG1        0.0626
@<TRIPOS>BOND
     1     1     2   ar
     2     1     8    1
     3     2     3   ar
     4     2    44    1
     5     3     4   ar
     6     3     9    1
     7     4     5   ar
     8     4    10    1
     9     5     6   ar
    10     5    45    1
    11     6     1   ar
    12     6     7    1
    13    10    46    1
    14    10    47    1
    15    11    10    1
    16    11    12    1
    17    11    13    1
    18    11    48    1
    19    12    14    1
    20    12    49    1
    21    12    50    1
    22    13    51    1
    23    13    52    1
    24    13    53    1
    25    14    15   am
    26    14    28    2
    27    15    16    1
    28    15    18    1
    29    16    17    1
    30    16    54    1
    31    16    55    1
    32    17    21    1
    33    17    56    1
    34    17    57    1
    35    18    29    1
    36    18    58    1
    37    19    20   ar
    38    20    18    1
    39    20    21   ar
    40    21    22   ar
    41    22    23   ar
    42    22    24    1
    43    23    19   ar
    44    24    25    1
    45    24    26    1
    46    24    27    1
    47    29    30    1
    48    29    59    1
    49    29    60    1
    50    30    31   ar
    51    31    32   ar
    52    31    61    1
    53    32    33   ar
    54    32    40    1
    55    33    34   ar
    56    33    62    1
    57    34    35   ar
    58    34    36    1
    59    35    30   ar
    60    35    63    1
    61    36    37    1
    62    36    38    1
    63    36    39    1
    64    40    41    1
    65    40    42    1
    66    40    43    1
