@<TRIPOS>MOLECULE
bindingdb_similar_1x70_processed:21
 44 46 0 0 0
SMALL
GASTEIGER

@<TRIPOS>ATOM
      1 C          34.3517   49.2524   36.3639 C.ar    1  LIG1       -0.0209
      2 C          34.5236   50.5733   36.7054 C.ar    1  LIG1       -0.0233
      3 C          35.7913   51.1077   36.7884 C.ar    1  LIG1        0.1297
      4 C          36.8986   50.3198   36.5365 C.ar    1  LIG1        0.0311
      5 C          36.7213   48.9862   36.2269 C.ar    1  LIG1        0.1645
      6 C          35.4485   48.4569   36.1234 C.ar    1  LIG1        0.1588
      7 C          38.3020   50.9154   36.5650 C.3     1  LIG1        0.0214
      8 C          38.9722   51.0713   35.1768 C.3     1  LIG1       -0.0117
      9 C          40.3550   51.7476   35.2922 C.3     1  LIG1        0.0673
     10 C          41.3834   50.9694   36.0916 C.2     1  LIG1        0.2214
     11 N          42.5633   51.6048   36.2682 N.am    1  LIG1       -0.2923
     12 O          41.1364   49.8570   36.5390 O.2     1  LIG1       -0.2754
     13 N          38.1219   51.9117   34.2624 N.4     1  LIG1        0.2213
     14 C          42.9273   52.8956   35.6288 C.3     1  LIG1        0.0332
     15 C          44.1506   52.6940   34.7068 C.3     1  LIG1        0.0422
     16 C          43.5779   50.9906   37.1505 C.3     1  LIG1        0.0746
     17 C          44.9471   51.1811   36.5320 C.ar    1  LIG1        0.1512
     18 N          45.1875   51.9520   35.4393 N.ar    1  LIG1       -0.3048
     19 C          46.5214   51.8822   35.1620 C.ar    1  LIG1        0.2376
     20 N          47.0554   51.1129   36.0628 N.ar    1  LIG1       -0.1250
     21 N          46.0773   50.6766   36.9164 N.ar    1  LIG1       -0.1324
     22 C          47.2565   52.5561   34.0158 C.3     1  LIG1        0.4524
     23 F          46.8077   52.0829   32.7872 F       1  LIG1       -0.1632
     24 F          48.6250   52.3172   34.0765 F       1  LIG1       -0.1632
     25 F          47.0784   53.9354   34.0240 F       1  LIG1       -0.1632
     26 F          37.7878   48.1998   36.0138 F       1  LIG1       -0.2021
     27 F          35.2728   47.1746   35.7705 F       1  LIG1       -0.2025
     28 F          35.9319   52.4039   37.1047 F       1  LIG1       -0.2051
     29 H          33.4307   48.8708   36.2873 H       1  LIG1        0.0648
     30 H          33.7263   51.1511   36.8804 H       1  LIG1        0.0647
     31 H          38.2965   51.9921   37.0943 H       1  LIG1        0.0370
     32 H          38.9770   50.1879   37.2379 H       1  LIG1        0.0370
     33 H          39.1156   49.9879   34.6825 H       1  LIG1        0.0858
     34 H          40.1710   52.8174   35.8037 H       1  LIG1        0.0414
     35 H          40.7736   51.8748   34.1742 H       1  LIG1        0.0414
     36 H          37.3015   51.5420   34.1268 H       1  LIG1        0.1997
     37 H          38.4966   52.0193   33.4389 H       1  LIG1        0.1997
     38 H          37.9877   52.7433   34.6064 H       1  LIG1        0.1997
     39 H          42.0855   53.4495   34.9825 H       1  LIG1        0.0482
     40 H          43.2569   53.6441   36.5069 H       1  LIG1        0.0482
     41 H          43.8217   52.0592   33.7432 H       1  LIG1        0.0508
     42 H          44.5644   53.7645   34.3581 H       1  LIG1        0.0508
     43 H          43.3672   49.8158   37.2735 H       1  LIG1        0.0545
     44 H          43.5467   51.5198   38.2273 H       1  LIG1        0.0545
@<TRIPOS>BOND
     1     1     2   ar
     2     1    29    1
     3     2     3   ar
     4     2    30    1
     5     3     4   ar
     6     3    28    1
     7     4     5   ar
     8     4     7    1
     9     5     6   ar
    10     5    26    1
    11     6     1   ar
    12     6    27    1
    13     7    31    1
    14     7    32    1
    15     8     7    1
    16     8     9    1
    17     8    13    1
    18     8    33    1
    19     9    10    1
    20     9    34    1
    21     9    35    1
    22    10    11   am
    23    10    12    2
    24    11    14    1
    25    11    16    1
    26    13    36    1
    27    13    37    1
    28    13    38    1
    29    14    15    1
    30    14    39    1
    31    14    40    1
    32    15    18    1
    33    15    41    1
    34    15    42    1
    35    16    43    1
    36    16    44    1
    37    17    16    1
    38    17    18   ar
    39    18    19   ar
    40    19    20   ar
    41    19    22    1
    42    20    21   ar
    43    21    17   ar
    44    22    23    1
    45    22    24    1
    46    22    25    1
