@<TRIPOS>MOLECULE
bindingdb_similar_1x70_processed:22
 44 46 0 0 0
SMALL
GASTEIGER

@<TRIPOS>ATOM
      1 C          34.4916   49.3102   36.2613 C.ar    1  LIG1        0.0593
      2 C          35.5861   48.4761   36.1504 C.ar    1  LIG1        0.0595
      3 C          36.8568   48.9979   36.2570 C.ar    1  LIG1       -0.0386
      4 C          37.0384   50.3454   36.4767 C.ar    1  LIG1       -0.0406
      5 C          35.9425   51.1695   36.6107 C.ar    1  LIG1       -0.0569
      6 C          34.6726   50.6538   36.5009 C.ar    1  LIG1       -0.0417
      7 C          38.4364   50.9398   36.5376 C.3     1  LIG1        0.0159
      8 C          39.1036   51.1028   35.1516 C.3     1  LIG1       -0.0119
      9 N          38.2437   51.9557   34.2581 N.4     1  LIG1        0.2213
     10 C          40.4825   51.7815   35.2722 C.3     1  LIG1        0.0673
     11 C          41.5152   50.9768   36.0353 C.2     1  LIG1        0.2214
     12 O          41.2632   49.8547   36.4531 O.2     1  LIG1       -0.2754
     13 N          42.7010   51.6008   36.2126 N.am    1  LIG1       -0.2923
     14 C          43.0648   52.9042   35.5992 C.3     1  LIG1        0.0332
     15 C          44.2759   52.7206   34.6564 C.3     1  LIG1        0.0422
     16 C          43.7225   50.9627   37.0674 C.3     1  LIG1        0.0746
     17 C          45.0847   51.1601   36.4354 C.ar    1  LIG1        0.1512
     18 N          45.3175   51.9557   35.3585 N.ar    1  LIG1       -0.3048
     19 C          46.6488   51.8859   35.0662 C.ar    1  LIG1        0.2376
     20 N          47.1868   51.0918   35.9426 N.ar    1  LIG1       -0.1250
     21 N          46.2156   50.6404   36.7956 N.ar    1  LIG1       -0.1324
     22 C          47.3796   52.5828   33.9310 C.3     1  LIG1        0.4524
     23 F          48.7466   52.3308   33.9750 F       1  LIG1       -0.1632
     24 F          46.9190   52.1432   32.6946 F       1  LIG1       -0.1632
     25 F          47.2150   53.9631   33.9735 F       1  LIG1       -0.1632
     26 CL         35.3782   46.7713   35.8556 Cl      1  LIG1       -0.0820
     27 CL         32.8767   48.6847   36.0902 Cl      1  LIG1       -0.0820
     28 H          37.6514   48.3978   36.1619 H       1  LIG1        0.0635
     29 H          36.0722   52.1475   36.7757 H       1  LIG1        0.0621
     30 H          33.8798   51.2577   36.5870 H       1  LIG1        0.0633
     31 H          38.3827   52.0196   37.0605 H       1  LIG1        0.0368
     32 H          39.1167   50.2258   37.2214 H       1  LIG1        0.0368
     33 H          39.2379   50.0184   34.6552 H       1  LIG1        0.0858
     34 H          37.4172   51.5937   34.1434 H       1  LIG1        0.1997
     35 H          38.5998   52.0610   33.4274 H       1  LIG1        0.1997
     36 H          38.1208   52.7876   34.6072 H       1  LIG1        0.1997
     37 H          40.2990   52.8321   35.8222 H       1  LIG1        0.0414
     38 H          40.8852   51.9488   34.1541 H       1  LIG1        0.0414
     39 H          42.2151   53.4781   34.9810 H       1  LIG1        0.0482
     40 H          43.4099   53.6291   36.4909 H       1  LIG1        0.0482
     41 H          43.9323   52.1117   33.6809 H       1  LIG1        0.0508
     42 H          44.6910   53.7978   34.3298 H       1  LIG1        0.0508
     43 H          43.5056   49.7868   37.1705 H       1  LIG1        0.0545
     44 H          43.7063   51.4716   38.1538 H       1  LIG1        0.0545
@<TRIPOS>BOND
     1     1     2   ar
     2     1    27    1
     3     2     3   ar
     4     2    26    1
     5     3     4   ar
     6     3    28    1
     7     4     5   ar
     8     4     7    1
     9     5     6   ar
    10     5    29    1
    11     6     1   ar
    12     6    30    1
    13     7    31    1
    14     7    32    1
    15     8     7    1
    16     8     9    1
    17     8    10    1
    18     8    33    1
    19     9    34    1
    20     9    35    1
    21     9    36    1
    22    10    11    1
    23    10    37    1
    24    10    38    1
    25    11    12    2
    26    11    13   am
    27    13    14    1
    28    13    16    1
    29    14    15    1
    30    14    39    1
    31    14    40    1
    32    15    18    1
    33    15    41    1
    34    15    42    1
    35    16    43    1
    36    16    44    1
    37    17    16    1
    38    17    18   ar
    39    18    19   ar
    40    19    20   ar
    41    19    22    1
    42    20    21   ar
    43    21    17   ar
    44    22    23    1
    45    22    24    1
    46    22    25    1
