bindingdb_similar_1x70_processed:8
 OpenBabel04261912203D

 45 47  0  0  1  0  0  0  0  0999 V2000
   34.4984   49.1779   36.3498 C   0  0  0  0  0  0  0  0  0  0  0  0
   34.6035   50.5175   36.6397 C   0  0  0  0  0  0  0  0  0  0  0  0
   35.8411   51.1235   36.6747 C   0  0  0  0  0  0  0  0  0  0  0  0
   36.9835   50.3885   36.4202 C   0  0  0  0  0  0  0  0  0  0  0  0
   36.8712   49.0460   36.1333 C   0  0  0  0  0  0  0  0  0  0  0  0
   35.6336   48.4402   36.0954 C   0  0  0  0  0  0  0  0  0  0  0  0
   38.3645   51.0322   36.4455 C   0  0  0  0  0  0  0  0  0  0  0  0
   39.0563   51.1615   35.0691 C   0  0  1  0  0  0  0  0  0  0  0  0
   38.2216   51.9979   34.1391 N   0  3  0  0  0  0  0  0  0  0  0  0
   40.4428   51.8252   35.2083 C   0  0  0  0  0  0  0  0  0  0  0  0
   41.4509   50.9957   35.9823 C   0  0  0  0  0  0  0  0  0  0  0  0
   41.1664   49.8818   36.4023 O   0  0  0  0  0  0  0  0  0  0  0  0
   42.6551   51.5831   36.1649 N   0  0  0  0  0  0  0  0  0  0  0  0
   43.0433   52.9008   35.5972 C   0  0  0  0  0  0  0  0  0  0  0  0
   44.2673   52.7474   34.6665 C   0  0  0  0  0  0  0  0  0  0  0  0
   43.6662   50.8913   36.9928 C   0  0  0  0  0  0  0  0  0  0  0  0
   45.0365   51.0935   36.3790 C   0  0  0  0  0  0  0  0  0  0  0  0
   45.2894   51.9374   35.3446 N   0  0  0  0  0  0  0  0  0  0  0  0
   46.6206   51.8649   35.0619 C   0  0  0  0  0  0  0  0  0  0  0  0
   47.1430   51.0195   35.8976 N   0  0  0  0  0  0  0  0  0  0  0  0
   46.1575   50.5382   36.7187 N   0  0  0  0  0  0  0  0  0  0  0  0
   35.5335   47.1349   35.8097 F   0  0  0  0  0  0  0  0  0  0  0  0
   35.9190   52.4322   36.9579 F   0  0  0  0  0  0  0  0  0  0  0  0
   47.3651   52.6250   33.9835 C   0  0  0  0  0  0  0  0  0  0  0  0
   48.3845   51.7847   33.4230 O   0  0  0  0  0  0  0  0  0  0  0  0
   39.1910   50.0682   34.5931 H   0  0  0  0  0  0  0  0  0  0  0  0
   33.5998   48.7400   36.3232 H   0  0  0  0  0  0  0  0  0  0  0  0
   33.7800   51.0538   36.8248 H   0  0  0  0  0  0  0  0  0  0  0  0
   37.6933   48.5076   35.9482 H   0  0  0  0  0  0  0  0  0  0  0  0
   38.3037   52.1243   36.9393 H   0  0  0  0  0  0  0  0  0  0  0  0
   39.0547   50.3579   37.1576 H   0  0  0  0  0  0  0  0  0  0  0  0
   37.3922   51.6446   34.0162 H   0  0  0  0  0  0  0  0  0  0  0  0
   38.5960   52.0732   33.3132 H   0  0  0  0  0  0  0  0  0  0  0  0
   38.1051   52.8425   34.4570 H   0  0  0  0  0  0  0  0  0  0  0  0
   40.2744   52.8795   35.7565 H   0  0  0  0  0  0  0  0  0  0  0  0
   40.8657   51.9885   34.0970 H   0  0  0  0  0  0  0  0  0  0  0  0
   42.2085   53.5034   34.9862 H   0  0  0  0  0  0  0  0  0  0  0  0
   43.3801   53.5910   36.5191 H   0  0  0  0  0  0  0  0  0  0  0  0
   43.9318   52.1909   33.6576 H   0  0  0  0  0  0  0  0  0  0  0  0
   44.7121   53.8292   34.3985 H   0  0  0  0  0  0  0  0  0  0  0  0
   43.4311   49.7158   37.0429 H   0  0  0  0  0  0  0  0  0  0  0  0
   43.6541   51.3483   38.1023 H   0  0  0  0  0  0  0  0  0  0  0  0
   46.5970   52.9495   33.1205 H   0  0  0  0  0  0  0  0  0  0  0  0
   47.8693   53.6045   34.4592 H   0  0  0  0  0  0  0  0  0  0  0  0
   47.9904   50.9541   33.0146 H   0  0  0  0  0  0  0  0  0  0  0  0
  1  2  2  0  0  0  0
  1 27  1  0  0  0  0
  2  3  1  0  0  0  0
  2 28  1  0  0  0  0
  3  4  2  0  0  0  0
  3 23  1  0  0  0  0
  4  5  1  0  0  0  0
  4  7  1  0  0  0  0
  5  6  2  0  0  0  0
  5 29  1  0  0  0  0
  6  1  1  0  0  0  0
  6 22  1  0  0  0  0
  7 30  1  0  0  0  0
  7 31  1  0  0  0  0
  8  7  1  0  0  0  0
  8  9  1  0  0  0  0
  8 10  1  0  0  0  0
  8 26  1  6  0  0  0
  9 32  1  0  0  0  0
  9 33  1  0  0  0  0
  9 34  1  0  0  0  0
 10 11  1  0  0  0  0
 10 35  1  0  0  0  0
 10 36  1  0  0  0  0
 11 12  2  0  0  0  0
 11 13  1  0  0  0  0
 13 14  1  0  0  0  0
 13 16  1  0  0  0  0
 14 15  1  0  0  0  0
 14 37  1  0  0  0  0
 14 38  1  0  0  0  0
 15 18  1  0  0  0  0
 15 39  1  0  0  0  0
 15 40  1  0  0  0  0
 16 41  1  0  0  0  0
 16 42  1  0  0  0  0
 17 16  1  0  0  0  0
 17 18  1  0  0  0  0
 18 19  1  0  0  0  0
 19 20  2  0  0  0  0
 19 24  1  0  0  0  0
 20 21  1  0  0  0  0
 21 17  2  0  0  0  0
 24 25  1  0  0  0  0
 24 43  1  0  0  0  0
 24 44  1  0  0  0  0
 25 45  1  0  0  0  0
M  CHG  1   9   1
M  END
>  <Mean(IC50 fixed2)>
69

>  <First(BindingDB Ligand Name)>
CHEMBL233684

>  <Concatenate(Target Name Assigned by Curator or DataSource)>
Dipeptidyl Peptidase IV (DPP-IV)

>  <First(Target Source Organism According to Curator or DataSource)>
Homo sapiens

>  <First(Curation/DataSource)>
ChEMBL

>  <First(Article DOI)>
10.1016/j.bmcl.2007.03.098

>  <Mean(PMID)>
17434732

>  <First(Authors)>
Kim, D; Kowalchick, JE; Edmondson, SD; Mastracchio, A; Xu, J; Eiermann, GJ; Leiting, B; Wu, JK; Pryor, KD; Patel, RA; He, H; Lyons, KA; Thornberry, NA; Weber, AE

>  <First(Institution)>
Merck Research Laboratories<span class=m1fontSize>Curated by</span> <a href=http://www.ebi.ac.uk/chembl/>ChEMBL</a>

>  <First(Link to Ligand in BindingDB)>
http://www.bindingdb.org/bind/chemsearch/marvin/MolStructure.jsp?monomerid=50210670

>  <First(Link to Ligand-Target Pair in BindingDB)>
http://www.bindingdb.org/jsp/dbsearch/PrimarySearch_ki.jsp?energyterm=kJ/mole&tag=r21&monomerid=50210670&enzyme=Dipeptidyl+Peptidase+IV+%28DPP-IV%29&column=ki&startPg=0&Increment=50&submit=Search

>  <Mean(PubChem CID)>
44431216

>  <Mean(PubChem SID)>
104087157

>  <First(ZINC ID of Ligand)>
ZINC28820850

>  <Concatenate*(UniProt (SwissProt) Entry Name of Target Chain)>
DPP4_HUMAN

>  <Mean(Number of Protein Chains in Target (>1 implies a multichain complex))>
1

>  <Median(pIC50)>
7.16115090926274

>  <Journal>
BiorgMedChemLett2007

>  <Activity Classes>
7.16115090926274

>  <Conformer_cresset>
5

>  <Similarity_cresset>
0.818

>  <Favorite_cresset>
false

>  <Activity (Median(pIC50))_cresset>
7.16

>  <LE (Median(pIC50))_cresset>
0.401

>  <LipE (Median(pIC50))_cresset>
5.9

>  <Tags_cresset>
training

>  <Confs_cresset>
23

>  <Conf#_cresset>
5

>  <Alns_cresset>
10

>  <MW_cresset>
352.4

>  <#Atoms_cresset>
25

>  <SlogP_cresset>
1.3

>  <TPSA_cresset>
98.9

>  <Flexibility_cresset>
6.9

>  <#RB_cresset>
7

>  <Rof5_cresset>
0

>  <Filename_cresset>
bindingdb_similar_1x70_processed.sdf

>  <Notes_cresset>
46

>  <Selected Alignment_cresset>
true

>  <Alignment Cluster Centre_cresset>
true

>  <_cresset_fieldpoints>
-5      47.886181      49.853550      37.092712    -13.9515
-5      40.497864      48.247093      36.774315     -7.4343
-5      38.079834      45.664730      36.444794     -1.2016
-6      31.593071      50.203827      36.604103      4.5013
-6      42.135880      53.582790      32.768085     12.0858
-7      36.229210      49.220779      39.517403     -2.0530
-7      31.250149      50.065750      36.698166     -1.0153
-7      37.048477      49.431034      32.934059     -2.4260
-7      31.688263      49.718830      38.138828     -1.0128
-7      39.989285      54.455013      33.525082     -1.8449
-7      38.393463      54.568207      36.262657     -2.0414
-7      40.255459      50.319424      32.152630     -1.5264
-7      40.893143      52.470833      38.390388     -2.6262
-7      45.856113      54.461769      36.961926     -2.0372
-7      41.908379      53.541298      32.384941     -1.6490
-7      44.690102      53.909901      31.661068     -1.2613
-7      47.859707      51.495388      38.187664     -1.3211
-7      49.114410      49.757259      34.753086     -1.2975
-7      47.195538      48.596321      35.612076     -1.3317
-7      40.036633      47.959675      35.913719     -2.5078
-7      35.556961      50.211082      33.185226     -2.4597
-7      42.993896      49.758617      33.882164     -2.6579
-8      35.742767      49.785908      36.381447      7.2378
-8      39.484257      51.409122      35.930866      4.9567
-8      36.956291      51.235081      36.599899      5.6062
-8      43.490837      53.334564      34.831619      3.7764
-8      43.702576      52.007919      36.192886      2.6519
-8      46.611130      53.021263      34.311733      2.9633
-8      44.172676      50.703335      37.310966      2.7908

$$$$
