@<TRIPOS>MOLECULE
bindingdb_similar_1x70_processed:17
 44 46 0 0 0
SMALL
GASTEIGER

@<TRIPOS>ATOM
      1 C          34.4701   49.2623   36.4778 C.ar    1  LIG1        0.0424
      2 C          34.6306   50.6149   36.6770 C.ar    1  LIG1       -0.0248
      3 C          35.8936   51.1623   36.6853 C.ar    1  LIG1        0.0457
      4 C          36.9981   50.3575   36.5035 C.ar    1  LIG1       -0.0237
      5 C          36.8315   49.0090   36.2818 C.ar    1  LIG1       -0.0556
      6 C          35.5696   48.4616   36.2641 C.ar    1  LIG1       -0.0430
      7 C          38.4004   50.9390   36.5755 C.3     1  LIG1        0.0173
      8 C          39.0688   51.1028   35.1915 C.3     1  LIG1       -0.0119
      9 N          38.2103   51.9530   34.2948 N.4     1  LIG1        0.2213
     10 C          40.4512   51.7753   35.3081 C.3     1  LIG1        0.0673
     11 C          41.4811   50.9657   36.0697 C.2     1  LIG1        0.2214
     12 O          41.2221   49.8473   36.4939 O.2     1  LIG1       -0.2754
     13 N          42.6713   51.5827   36.2398 N.am    1  LIG1       -0.2923
     14 C          43.0414   52.8808   35.6179 C.3     1  LIG1        0.0332
     15 C          44.2534   52.6882   34.6780 C.3     1  LIG1        0.0422
     16 C          43.6914   50.9459   37.0986 C.3     1  LIG1        0.0746
     17 C          45.0549   51.1344   36.4664 C.ar    1  LIG1        0.1512
     18 N          45.2916   51.9233   35.3851 N.ar    1  LIG1       -0.3048
     19 C          46.6228   51.8462   35.0938 C.ar    1  LIG1        0.2376
     20 N          47.1567   51.0544   35.9745 N.ar    1  LIG1       -0.1250
     21 N          46.1837   50.6122   36.8296 N.ar    1  LIG1       -0.1324
     22 C          47.3583   52.5323   33.9552 C.3     1  LIG1        0.4524
     23 F          46.8961   52.0876   32.7213 F       1  LIG1       -0.1632
     24 F          48.7239   52.2738   34.0017 F       1  LIG1       -0.1632
     25 F          47.2005   53.9136   33.9896 F       1  LIG1       -0.1632
     26 CL         36.0943   52.8683   36.9519 Cl      1  LIG1       -0.0832
     27 CL         32.8807   48.5611   36.5131 Cl      1  LIG1       -0.0835
     28 H          33.8315   51.1975   36.8253 H       1  LIG1        0.0647
     29 H          37.6305   48.4241   36.1413 H       1  LIG1        0.0621
     30 H          35.4514   47.4816   36.1063 H       1  LIG1        0.0632
     31 H          38.3676   52.0127   37.1117 H       1  LIG1        0.0369
     32 H          39.0643   50.2064   37.2532 H       1  LIG1        0.0369
     33 H          39.1982   50.0193   34.6926 H       1  LIG1        0.0858
     34 H          37.3852   51.5888   34.1788 H       1  LIG1        0.1997
     35 H          38.5712   52.0495   33.4653 H       1  LIG1        0.1997
     36 H          38.0872   52.7877   34.6364 H       1  LIG1        0.1997
     37 H          40.2764   52.8284   35.8563 H       1  LIG1        0.0414
     38 H          40.8507   51.9334   34.1875 H       1  LIG1        0.0414
     39 H          42.1954   53.4537   34.9938 H       1  LIG1        0.0482
     40 H          43.3856   53.6114   36.5056 H       1  LIG1        0.0482
     41 H          43.9089   52.0761   33.7050 H       1  LIG1        0.0508
     42 H          44.6724   53.7628   34.3480 H       1  LIG1        0.0508
     43 H          43.4699   49.7724   37.2126 H       1  LIG1        0.0545
     44 H          43.6777   51.4620   38.1819 H       1  LIG1        0.0545
@<TRIPOS>BOND
     1     1     2   ar
     2     1    27    1
     3     2     3   ar
     4     2    28    1
     5     3     4   ar
     6     3    26    1
     7     4     5   ar
     8     4     7    1
     9     5     6   ar
    10     5    29    1
    11     6     1   ar
    12     6    30    1
    13     7    31    1
    14     7    32    1
    15     8     7    1
    16     8     9    1
    17     8    10    1
    18     8    33    1
    19     9    34    1
    20     9    35    1
    21     9    36    1
    22    10    11    1
    23    10    37    1
    24    10    38    1
    25    11    12    2
    26    11    13   am
    27    13    14    1
    28    13    16    1
    29    14    15    1
    30    14    39    1
    31    14    40    1
    32    15    18    1
    33    15    41    1
    34    15    42    1
    35    16    43    1
    36    16    44    1
    37    17    16    1
    38    17    18   ar
    39    18    19   ar
    40    19    20   ar
    41    19    22    1
    42    20    21   ar
    43    21    17   ar
    44    22    23    1
    45    22    24    1
    46    22    25    1
