bindingdb_similar_1x70_processed:57
 OpenBabel04261912203D

 54 57  0  0  1  0  0  0  0  0999 V2000
   34.4780   49.2225   36.3267 C   0  0  0  0  0  0  0  0  0  0  0  0
   34.6082   50.5559   36.6408 C   0  0  0  0  0  0  0  0  0  0  0  0
   35.8563   51.1387   36.6896 C   0  0  0  0  0  0  0  0  0  0  0  0
   36.9848   50.3873   36.4240 C   0  0  0  0  0  0  0  0  0  0  0  0
   36.8500   49.0506   36.1161 C   0  0  0  0  0  0  0  0  0  0  0  0
   35.6038   48.4668   36.0643 C   0  0  0  0  0  0  0  0  0  0  0  0
   38.3760   51.0070   36.4549 C   0  0  0  0  0  0  0  0  0  0  0  0
   39.0662   51.1325   35.0768 C   0  0  2  0  0  0  0  0  0  0  0  0
   40.4477   51.8078   35.2084 C   0  0  0  0  0  0  0  0  0  0  0  0
   38.2263   51.9536   34.1377 N   0  3  0  0  0  0  0  0  0  0  0  0
   41.4599   50.9893   35.9876 C   0  0  0  0  0  0  0  0  0  0  0  0
   42.6596   51.5847   36.1745 N   0  0  0  0  0  0  0  0  0  0  0  0
   41.1816   49.8737   36.4068 O   0  0  0  0  0  0  0  0  0  0  0  0
   43.0347   52.9036   35.5941 C   0  0  0  0  0  0  0  0  0  0  0  0
   44.2600   52.7636   34.6638 C   0  0  0  0  0  0  0  0  0  0  0  0
   43.6661   50.8804   37.0053 C   0  0  1  0  0  0  0  0  0  0  0  0
   45.0344   51.0984   36.3935 C   0  0  0  0  0  0  0  0  0  0  0  0
   45.2541   51.9457   35.3663 N   0  0  0  0  0  0  0  0  0  0  0  0
   46.5757   51.8991   35.0697 N   0  0  0  0  0  0  0  0  0  0  0  0
   47.0984   51.0502   35.9101 C   0  0  0  0  0  0  0  0  0  0  0  0
   46.1734   50.5349   36.7476 N   0  0  0  0  0  0  0  0  0  0  0  0
   35.9577   52.4408   36.9958 F   0  0  0  0  0  0  0  0  0  0  0  0
   33.2593   48.6656   36.2756 F   0  0  0  0  0  0  0  0  0  0  0  0
   35.4894   47.1669   35.7559 F   0  0  0  0  0  0  0  0  0  0  0  0
   48.5704   50.6946   35.9468 C   0  0  0  0  0  0  0  0  0  0  0  0
   49.2877   51.6257   36.6886 F   0  0  0  0  0  0  0  0  0  0  0  0
   48.7856   49.4457   36.5195 F   0  0  0  0  0  0  0  0  0  0  0  0
   49.1153   50.6676   34.6682 F   0  0  0  0  0  0  0  0  0  0  0  0
   43.6356   51.2919   38.4898 C   0  0  0  0  0  0  0  0  0  0  0  0
   42.2977   50.8896   39.1371 C   0  0  0  0  0  0  0  0  0  0  0  0
   41.9815   51.6591   40.4283 C   0  0  0  0  0  0  0  0  0  0  0  0
   41.2255   51.9905   39.1312 C   0  0  0  0  0  0  0  0  0  0  0  0
   39.2094   50.0362   34.6098 H   0  0  0  0  0  0  0  0  0  0  0  0
   43.4467   49.7020   36.9539 H   0  0  0  0  0  0  0  0  0  0  0  0
   33.7943   51.1043   36.8326 H   0  0  0  0  0  0  0  0  0  0  0  0
   37.6632   48.5011   35.9242 H   0  0  0  0  0  0  0  0  0  0  0  0
   39.0537   50.3126   37.1596 H   0  0  0  0  0  0  0  0  0  0  0  0
   38.3358   52.0955   36.9586 H   0  0  0  0  0  0  0  0  0  0  0  0
   40.2708   52.8645   35.7489 H   0  0  0  0  0  0  0  0  0  0  0  0
   40.8677   51.9650   34.0951 H   0  0  0  0  0  0  0  0  0  0  0  0
   37.3990   51.5940   34.0189 H   0  0  0  0  0  0  0  0  0  0  0  0
   38.5994   52.0212   33.3105 H   0  0  0  0  0  0  0  0  0  0  0  0
   38.1040   52.8016   34.4446 H   0  0  0  0  0  0  0  0  0  0  0  0
   42.1950   53.4919   34.9763 H   0  0  0  0  0  0  0  0  0  0  0  0
   43.3601   53.6136   36.5044 H   0  0  0  0  0  0  0  0  0  0  0  0
   43.9347   52.2101   33.6499 H   0  0  0  0  0  0  0  0  0  0  0  0
   44.7125   53.8454   34.4095 H   0  0  0  0  0  0  0  0  0  0  0  0
   44.5177   50.7137   39.0624 H   0  0  0  0  0  0  0  0  0  0  0  0
   43.8257   52.4723   38.5881 H   0  0  0  0  0  0  0  0  0  0  0  0
   41.9060   49.7559   39.1010 H   0  0  0  0  0  0  0  0  0  0  0  0
   42.7914   52.4729   40.7770 H   0  0  0  0  0  0  0  0  0  0  0  0
   41.3454   51.0576   41.2490 H   0  0  0  0  0  0  0  0  0  0  0  0
   40.0859   51.6155   39.1087 H   0  0  0  0  0  0  0  0  0  0  0  0
   41.5164   53.0418   38.6310 H   0  0  0  0  0  0  0  0  0  0  0  0
  1  2  2  0  0  0  0
  1 23  1  0  0  0  0
  2  3  1  0  0  0  0
  2 35  1  0  0  0  0
  3  4  2  0  0  0  0
  3 22  1  0  0  0  0
  4  5  1  0  0  0  0
  4  7  1  0  0  0  0
  5  6  2  0  0  0  0
  5 36  1  0  0  0  0
  6  1  1  0  0  0  0
  6 24  1  0  0  0  0
  7 37  1  0  0  0  0
  7 38  1  0  0  0  0
  8  7  1  0  0  0  0
  8  9  1  0  0  0  0
  8 10  1  0  0  0  0
  8 33  1  6  0  0  0
  9 11  1  0  0  0  0
  9 39  1  0  0  0  0
  9 40  1  0  0  0  0
 10 41  1  0  0  0  0
 10 42  1  0  0  0  0
 10 43  1  0  0  0  0
 11 12  1  0  0  0  0
 11 13  2  0  0  0  0
 12 14  1  0  0  0  0
 12 16  1  0  0  0  0
 14 15  1  0  0  0  0
 14 44  1  0  0  0  0
 14 45  1  0  0  0  0
 15 18  1  0  0  0  0
 15 46  1  0  0  0  0
 15 47  1  0  0  0  0
 16 29  1  0  0  0  0
 16 34  1  6  0  0  0
 17 16  1  0  0  0  0
 17 18  1  0  0  0  0
 18 19  1  0  0  0  0
 19 20  2  0  0  0  0
 20 21  1  0  0  0  0
 20 25  1  0  0  0  0
 21 17  2  0  0  0  0
 25 26  1  0  0  0  0
 25 27  1  0  0  0  0
 25 28  1  0  0  0  0
 29 30  1  0  0  0  0
 29 48  1  0  0  0  0
 29 49  1  0  0  0  0
 30 32  1  0  0  0  0
 30 50  1  0  0  0  0
 31 30  1  0  0  0  0
 31 51  1  0  0  0  0
 31 52  1  0  0  0  0
 32 31  1  0  0  0  0
 32 53  1  0  0  0  0
 32 54  1  0  0  0  0
M  CHG  1  10   1
M  END
>  <Mean(IC50 fixed2)>
7

>  <First(BindingDB Ligand Name)>
CHEMBL400752

>  <Concatenate(Target Name Assigned by Curator or DataSource)>
Dipeptidyl Peptidase IV (DPP-IV)

>  <First(Target Source Organism According to Curator or DataSource)>
Homo sapiens

>  <First(Curation/DataSource)>
ChEMBL

>  <First(Article DOI)>
10.1016/j.bmcl.2007.07.100

>  <Mean(PMID)>
17827003

>  <First(Authors)>
Kowalchick, JE; Leiting, B; Pryor, KD; Marsilio, F; Wu, JK; He, H; Lyons, KA; Eiermann, GJ; Petrov, A; Scapin, G; Patel, RA; Thornberry, NA; Weber, AE; Kim, D

>  <First(Institution)>
Merck Research Laboratories<span class=m1fontSize>Curated by</span> <a href=http://www.ebi.ac.uk/chembl/>ChEMBL</a>

>  <First(Link to Ligand in BindingDB)>
http://www.bindingdb.org/bind/chemsearch/marvin/MolStructure.jsp?monomerid=50221451

>  <First(Link to Ligand-Target Pair in BindingDB)>
http://www.bindingdb.org/jsp/dbsearch/PrimarySearch_ki.jsp?energyterm=kJ/mole&tag=r21&monomerid=50221451&enzyme=Dipeptidyl+Peptidase+IV+%28DPP-IV%29&column=ki&startPg=0&Increment=50&submit=Search

>  <Mean(PubChem CID)>
44444375

>  <Mean(PubChem SID)>
104094108

>  <First(ZINC ID of Ligand)>
ZINC13982517

>  <Concatenate*(UniProt (SwissProt) Entry Name of Target Chain)>
DPP4_HUMAN

>  <Mean(Number of Protein Chains in Target (>1 implies a multichain complex))>
1

>  <Median(pIC50)>
8.15490195998574

>  <Journal>
Kow BioorgMedChemLett2007

>  <Activity Classes>
8.15490195998574

>  <Conformer_cresset>
2

>  <Similarity_cresset>
0.810

>  <Favorite_cresset>
false

>  <Activity (Median(pIC50))_cresset>
8.15

>  <LE (Median(pIC50))_cresset>
0.357

>  <LipE (Median(pIC50))_cresset>
4

>  <Tags_cresset>
training

>  <Confs_cresset>
54

>  <Conf#_cresset>
2

>  <Alns_cresset>
10

>  <MW_cresset>
462.4

>  <#Atoms_cresset>
32

>  <SlogP_cresset>
4.2

>  <TPSA_cresset>
78.7

>  <Flexibility_cresset>
6.9

>  <#RB_cresset>
8

>  <Rof5_cresset>
0

>  <Filename_cresset>
bindingdb_similar_1x70_processed.sdf

>  <Notes_cresset>
32b

>  <Selected Alignment_cresset>
true

>  <Alignment Cluster Centre_cresset>
true

>  <_cresset_fieldpoints>
-5      32.946461      45.848362      35.742317     -2.6215
-5      40.862778      48.224380      37.064243     -6.9687
-5      46.403099      48.987022      38.046474     -4.1769
-5      47.453506      52.800079      33.545727     -2.3002
-5      51.900658      49.683502      36.225910     -1.6909
-5      50.900818      49.843250      38.626789     -1.7768
-5      50.253502      47.810040      34.447739     -1.8078
-6      35.672272      50.577507      33.274075      5.4767
-6      44.135624      48.257774      39.011425      1.5543
-6      41.889271      53.602680      32.811539     10.7858
-6      40.669224      54.240738      33.564983     10.6298
-7      36.110977      49.133190      39.482445     -2.1699
-7      39.264984      49.142467      39.292282     -2.4570
-7      37.094006      49.382507      32.922443     -2.4375
-7      40.210670      48.275776      37.738972     -2.6825
-7      39.995586      47.956726      36.320759     -2.6665
-7      39.972542      54.427227      33.519588     -1.8543
-7      41.864376      53.537590      32.386250     -1.6219
-7      43.013962      49.734623      33.926487     -2.6975
-7      38.449795      54.527313      36.304157     -2.1613
-7      40.277130      50.260300      32.175285     -1.5302
-7      39.344776      54.239571      37.631828     -2.3027
-7      40.893688      54.881226      37.060520     -2.0469
-7      43.370735      56.096191      35.198818     -1.1399
-7      43.256317      54.864803      38.799026     -1.9482
-7      45.992092      50.583836      32.924469     -2.0142
-7      35.425167      50.311356      33.214298     -2.5615
-7      52.086250      49.881100      36.038303     -1.1030
-7      45.844185      54.004692      37.411293     -2.5069
-7      46.086449      48.719772      38.399719     -2.2319
-7      45.441357      52.670448      40.735500     -1.4942
-7      47.059422      50.788208      39.196259     -2.2783
-7      37.822647      50.513622      39.629295     -2.4502
-8      35.726322      49.802715      36.374439      7.2653
-8      42.444805      51.674973      39.252956      5.9944
-8      39.498520      51.397331      35.949337      4.9955
-8      36.975719      51.233383      36.619244      5.6174
-8      43.461193      53.355846      34.839352      3.7446
-8      48.669029      50.672504      35.953861      5.5985

$$$$
