@<TRIPOS>MOLECULE
Copy of bindingdb_similar_1x70_processed:56
 51 53 0 0 0
SMALL
GASTEIGER

@<TRIPOS>ATOM
      1 C          34.4488   49.2505   36.3381 C.ar    1  LIG1        0.1611
      2 C          34.6112   50.5803   36.6519 C.ar    1  LIG1        0.0119
      3 C          35.8731   51.1323   36.6955 C.ar    1  LIG1        0.1296
      4 C          36.9821   50.3549   36.4251 C.ar    1  LIG1       -0.0040
      5 C          36.8145   49.0222   36.1148 C.ar    1  LIG1       -0.0175
      6 C          35.5544   48.4683   36.0682 C.ar    1  LIG1        0.1588
      7 F          35.4058   47.1714   35.7588 F       1  LIG1       -0.2025
      8 F          33.2169   48.7234   36.2956 F       1  LIG1       -0.2024
      9 F          36.0096   52.4303   37.0032 F       1  LIG1       -0.2051
     10 C          38.3827   50.9521   36.4587 C.3     1  LIG1        0.0187
     11 C          39.0748   51.0972   35.0828 C.3     1  LIG1       -0.0118
     12 C          40.4475   51.7923   35.2206 C.3     1  LIG1        0.0673
     13 N          38.2236   51.9044   34.1405 N.4     1  LIG1        0.2213
     14 C          41.4700   51.0041   36.0195 C.2     1  LIG1        0.2216
     15 N          42.6686   51.6088   36.1769 N.am    1  LIG1       -0.2892
     16 C          43.0428   52.9033   35.5487 C.3     1  LIG1        0.0335
     17 C          44.2545   52.7064   34.6105 C.3     1  LIG1        0.0422
     18 C          43.6845   50.9378   37.0203 C.3     1  LIG1        0.0893
     19 N          46.1932   50.6830   36.8021 N.ar    1  LIG1       -0.1321
     20 C          45.0568   51.1742   36.4182 C.ar    1  LIG1        0.1547
     21 N          45.2945   51.9576   35.3319 N.ar    1  LIG1       -0.3046
     22 C          46.6297   51.8986   35.0522 C.ar    1  LIG1        0.2377
     23 N          47.1688   51.1326   35.9524 N.ar    1  LIG1       -0.1250
     24 C          47.3646   52.5668   33.8999 C.3     1  LIG1        0.4524
     25 F          48.7305   52.3101   33.9533 F       1  LIG1       -0.1632
     26 F          47.2080   53.9488   33.8984 F       1  LIG1       -0.1632
     27 F          46.9082   52.0945   32.6736 F       1  LIG1       -0.1632
     28 O          41.2030   49.9027   36.4808 O.2     1  LIG1       -0.2754
     29 C          43.5921   51.3498   38.5021 C.3     1  LIG1       -0.0092
     30 C          42.2231   51.0496   39.0671 C.2     1  LIG1       -0.0889
     31 C          41.9607   50.2268   40.0633 C.2     1  LIG1       -0.1026
     32 H          33.8114   51.1477   36.8482 H       1  LIG1        0.0676
     33 H          37.6141   48.4544   35.9188 H       1  LIG1        0.0651
     34 H          38.3589   52.0285   36.9887 H       1  LIG1        0.0369
     35 H          39.0514   50.2320   37.1472 H       1  LIG1        0.0369
     36 H          39.2321   50.0045   34.6128 H       1  LIG1        0.0858
     37 H          40.2555   52.8549   35.7439 H       1  LIG1        0.0414
     38 H          40.8726   51.9415   34.1081 H       1  LIG1        0.0414
     39 H          37.4073   51.5201   34.0200 H       1  LIG1        0.1997
     40 H          38.6044   51.9787   33.3165 H       1  LIG1        0.1997
     41 H          38.0843   52.7473   34.4554 H       1  LIG1        0.1997
     42 H          42.1955   53.4851   34.9345 H       1  LIG1        0.0482
     43 H          43.3985   53.6309   36.4337 H       1  LIG1        0.0482
     44 H          43.9156   52.0856   33.6411 H       1  LIG1        0.0508
     45 H          44.6720   53.7802   34.2764 H       1  LIG1        0.0508
     46 H          43.4901   49.7549   36.9684 H       1  LIG1        0.0585
     47 H          44.4169   50.7353   39.1205 H       1  LIG1        0.0329
     48 H          43.8171   52.5240   38.6004 H       1  LIG1        0.0329
     49 H          41.4550   51.5187   38.6490 H       1  LIG1        0.0567
     50 H          42.6988   49.7428   40.5114 H       1  LIG1        0.0532
     51 H          41.0255   50.0883   40.3689 H       1  LIG1        0.0532
@<TRIPOS>BOND
     1     1     2   ar
     2     1     8    1
     3     2     3   ar
     4     2    32    1
     5     3     4   ar
     6     3     9    1
     7     4     5   ar
     8     4    10    1
     9     5     6   ar
    10     5    33    1
    11     6     1   ar
    12     6     7    1
    13    10    34    1
    14    10    35    1
    15    11    10    1
    16    11    12    1
    17    11    13    1
    18    11    36    1
    19    12    14    1
    20    12    37    1
    21    12    38    1
    22    13    39    1
    23    13    40    1
    24    13    41    1
    25    14    15   am
    26    14    28    2
    27    15    16    1
    28    15    18    1
    29    16    17    1
    30    16    42    1
    31    16    43    1
    32    17    21    1
    33    17    44    1
    34    17    45    1
    35    18    29    1
    36    18    46    1
    37    19    20   ar
    38    20    18    1
    39    20    21   ar
    40    21    22   ar
    41    22    23   ar
    42    22    24    1
    43    23    19   ar
    44    24    25    1
    45    24    26    1
    46    24    27    1
    47    29    30    1
    48    29    47    1
    49    29    48    1
    50    30    31    2
    51    30    49    1
    52    31    50    1
    53    31    51    1
