@<TRIPOS>MOLECULE
bindingdb_similar_1x70_processed:53
 51 54 0 0 0
SMALL
GASTEIGER

@<TRIPOS>ATOM
      1 C          34.2378   49.4444   36.2680 C.ar    1  LIG1       -0.0237
      2 C          34.4413   50.7639   36.5957 C.ar    1  LIG1       -0.0235
      3 C          35.7216   51.2662   36.6836 C.ar    1  LIG1        0.1269
      4 C          36.8069   50.4459   36.4437 C.ar    1  LIG1       -0.0042
      5 C          36.5979   49.1237   36.1197 C.ar    1  LIG1       -0.0204
      6 C          35.3173   48.6225   36.0290 C.ar    1  LIG1        0.1238
      7 C          38.2314   50.9801   36.5170 C.3     1  LIG1        0.0187
      8 C          38.9492   51.0977   35.1523 C.3     1  LIG1       -0.0118
      9 N          38.1474   51.9540   34.2103 N.4     1  LIG1        0.2213
     10 C          40.3452   51.7361   35.3078 C.3     1  LIG1        0.0673
     11 C          41.3234   50.9407   36.1521 C.2     1  LIG1        0.2214
     12 O          41.0330   49.8424   36.6077 O.2     1  LIG1       -0.2754
     13 N          42.5140   51.5462   36.3551 N.am    1  LIG1       -0.2923
     14 C          42.9298   52.8201   35.7165 C.3     1  LIG1        0.0332
     15 C          44.1626   52.5590   34.8238 C.3     1  LIG1        0.0422
     16 C          43.4914   50.9178   37.2661 C.3     1  LIG1        0.0746
     17 C          44.8788   51.0490   36.6733 C.ar    1  LIG1        0.1512
     18 N          45.1701   51.7701   35.5559 N.ar    1  LIG1       -0.3080
     19 C          46.5204   51.6408   35.3218 C.ar    1  LIG1        0.1671
     20 N          46.9980   50.9019   36.2908 N.ar    1  LIG1       -0.1290
     21 N          45.9790   50.5332   37.1220 N.ar    1  LIG1       -0.1324
     22 F          35.1215   47.3375   35.7055 F       1  LIG1       -0.2055
     23 C          47.2625   52.1986   34.2042 C.ar    1  LIG1        0.0546
     24 C          48.6419   52.3451   34.3138 C.ar    1  LIG1        0.1368
     25 C          49.3830   52.8395   33.2648 C.ar    1  LIG1        0.0095
     26 C          48.7662   53.1935   32.0862 C.ar    1  LIG1        0.1262
     27 C          47.4000   53.0582   31.9616 C.ar    1  LIG1       -0.0256
     28 C          46.6611   52.5685   33.0087 C.ar    1  LIG1       -0.0456
     29 F          49.4906   53.6639   31.0635 F       1  LIG1       -0.2054
     30 F          35.8976   52.5578   37.0006 F       1  LIG1       -0.2052
     31 F          49.2752   52.0140   35.4495 F       1  LIG1       -0.2047
     32 H          33.3084   49.0821   36.2028 H       1  LIG1        0.0647
     33 H          33.6584   51.3615   36.7685 H       1  LIG1        0.0647
     34 H          37.3797   48.5253   35.9440 H       1  LIG1        0.0650
     35 H          38.8569   50.2326   37.2168 H       1  LIG1        0.0369
     36 H          38.2480   52.0572   37.0461 H       1  LIG1        0.0369
     37 H          39.0707   50.0027   34.6778 H       1  LIG1        0.0858
     38 H          37.3187   51.6083   34.0639 H       1  LIG1        0.1997
     39 H          38.5434   52.0351   33.3946 H       1  LIG1        0.1997
     40 H          38.0319   52.7950   34.5391 H       1  LIG1        0.1997
     41 H          40.1778   52.8184   35.7994 H       1  LIG1        0.0414
     42 H          40.8035   51.8344   34.2025 H       1  LIG1        0.0414
     43 H          42.1242   53.3905   35.0393 H       1  LIG1        0.0482
     44 H          43.2573   53.5713   36.5926 H       1  LIG1        0.0482
     45 H          43.7981   51.9374   33.8643 H       1  LIG1        0.0508
     46 H          44.6119   53.6209   34.4914 H       1  LIG1        0.0508
     47 H          43.2423   49.7518   37.4012 H       1  LIG1        0.0545
     48 H          43.4549   51.4660   38.3336 H       1  LIG1        0.0545
     49 H          50.3734   52.9407   33.3582 H       1  LIG1        0.0675
     50 H          46.9476   53.3139   31.1070 H       1  LIG1        0.0646
     51 H          45.6748   52.4686   32.8985 H       1  LIG1        0.0626
@<TRIPOS>BOND
     1     1     2   ar
     2     1    32    1
     3     2     3   ar
     4     2    33    1
     5     3     4   ar
     6     3    30    1
     7     4     5   ar
     8     4     7    1
     9     5     6   ar
    10     5    34    1
    11     6     1   ar
    12     6    22    1
    13     7    35    1
    14     7    36    1
    15     8     7    1
    16     8     9    1
    17     8    10    1
    18     8    37    1
    19     9    38    1
    20     9    39    1
    21     9    40    1
    22    10    11    1
    23    10    41    1
    24    10    42    1
    25    11    12    2
    26    11    13   am
    27    13    14    1
    28    13    16    1
    29    14    15    1
    30    14    43    1
    31    14    44    1
    32    15    18    1
    33    15    45    1
    34    15    46    1
    35    16    47    1
    36    16    48    1
    37    17    16    1
    38    17    18   ar
    39    18    19   ar
    40    19    20   ar
    41    19    23    1
    42    20    21   ar
    43    21    17   ar
    44    23    24   ar
    45    24    25   ar
    46    24    31    1
    47    25    26   ar
    48    25    49    1
    49    26    27   ar
    50    26    29    1
    51    27    28   ar
    52    27    50    1
    53    28    23   ar
    54    28    51    1
