@<TRIPOS>MOLECULE
bindingdb_similar_1x70_processed:46
 47 49 0 0 0
SMALL
GASTEIGER

@<TRIPOS>ATOM
      1 C          34.4523   49.2288   36.3629 C.ar    1  LIG1        0.1611
      2 C          34.5866   50.5654   36.6623 C.ar    1  LIG1        0.0119
      3 C          35.8361   51.1464   36.6999 C.ar    1  LIG1        0.1296
      4 C          36.9618   50.3895   36.4378 C.ar    1  LIG1       -0.0040
      5 C          36.8227   49.0497   36.1461 C.ar    1  LIG1       -0.0175
      6 C          35.5753   48.4676   36.1049 C.ar    1  LIG1        0.1588
      7 F          35.4574   47.1647   35.8100 F       1  LIG1       -0.2025
      8 F          33.2322   48.6736   36.3213 F       1  LIG1       -0.2024
      9 F          35.9418   52.4519   36.9902 F       1  LIG1       -0.2051
     10 C          38.3561   51.0037   36.4490 C.3     1  LIG1        0.0187
     11 C          39.0338   51.0861   35.0625 C.3     1  LIG1       -0.0118
     12 C          40.4201   51.7564   35.1569 C.3     1  LIG1        0.0673
     13 N          38.1866   51.8866   34.1118 N.4     1  LIG1        0.2213
     14 C          41.4427   50.9732   35.9595 C.2     1  LIG1        0.2216
     15 N          42.6480   51.5730   36.0988 N.am    1  LIG1       -0.2895
     16 C          43.0044   52.8774   35.4701 C.3     1  LIG1        0.0416
     17 C          44.2947   52.7458   34.6249 C.3     1  LIG1        0.0447
     18 C          43.6634   50.9002   36.9420 C.3     1  LIG1        0.0749
     19 N          46.1597   50.5540   36.7136 N.ar    1  LIG1       -0.1324
     20 C          45.0433   51.1042   36.3524 C.ar    1  LIG1        0.1512
     21 N          45.3112   51.9413   35.3177 N.ar    1  LIG1       -0.3046
     22 C          46.6468   51.8662   35.0494 C.ar    1  LIG1        0.2377
     23 N          47.1559   51.0281   35.9016 N.ar    1  LIG1       -0.1250
     24 C          47.4086   52.6011   33.9594 C.3     1  LIG1        0.4524
     25 F          48.7678   52.3102   34.0034 F       1  LIG1       -0.1632
     26 F          47.2787   53.9808   34.0758 F       1  LIG1       -0.1632
     27 F          46.9504   52.2417   32.6962 F       1  LIG1       -0.1632
     28 O          41.1660   49.8802   36.4360 O.2     1  LIG1       -0.2754
     29 C          43.1867   53.9625   36.5490 C.3     1  LIG1       -0.0447
     30 H          39.1646   49.9767   34.6241 H       1  LIG1        0.0858
     31 H          42.1966   53.3260   34.7098 H       1  LIG1        0.0515
     32 H          33.7747   51.1178   36.8508 H       1  LIG1        0.0676
     33 H          37.6341   48.4967   35.9566 H       1  LIG1        0.0651
     34 H          38.3308   52.1094   36.9153 H       1  LIG1        0.0369
     35 H          39.0333   50.3243   37.1687 H       1  LIG1        0.0369
     36 H          40.2577   52.8408   35.6451 H       1  LIG1        0.0414
     37 H          40.8155   51.8441   34.0272 H       1  LIG1        0.0414
     38 H          37.3570   51.5270   34.0125 H       1  LIG1        0.1997
     39 H          38.5485   51.9326   33.2781 H       1  LIG1        0.1997
     40 H          38.0707   52.7420   34.4000 H       1  LIG1        0.1997
     41 H          44.0216   52.1889   33.5974 H       1  LIG1        0.0511
     42 H          44.7275   53.8350   34.3703 H       1  LIG1        0.0511
     43 H          43.4412   49.7225   36.9988 H       1  LIG1        0.0545
     44 H          43.6313   51.3638   38.0484 H       1  LIG1        0.0545
     45 H          44.0950   53.6572   37.2714 H       1  LIG1        0.0248
     46 H          42.1796   54.0577   37.1943 H       1  LIG1        0.0248
     47 H          43.4250   55.0191   36.0324 H       1  LIG1        0.0248
@<TRIPOS>BOND
     1     1     2   ar
     2     1     8    1
     3     2     3   ar
     4     2    32    1
     5     3     4   ar
     6     3     9    1
     7     4     5   ar
     8     4    10    1
     9     5     6   ar
    10     5    33    1
    11     6     1   ar
    12     6     7    1
    13    10    34    1
    14    10    35    1
    15    11    10    1
    16    11    12    1
    17    11    13    1
    18    11    30    1
    19    12    14    1
    20    12    36    1
    21    12    37    1
    22    13    38    1
    23    13    39    1
    24    13    40    1
    25    14    15   am
    26    14    28    2
    27    15    16    1
    28    15    18    1
    29    16    17    1
    30    16    29    1
    31    16    31    1
    32    17    21    1
    33    17    41    1
    34    17    42    1
    35    18    43    1
    36    18    44    1
    37    19    20   ar
    38    20    18    1
    39    20    21   ar
    40    21    22   ar
    41    22    23   ar
    42    22    24    1
    43    23    19   ar
    44    24    25    1
    45    24    26    1
    46    24    27    1
    47    29    45    1
    48    29    46    1
    49    29    47    1
