@<TRIPOS>MOLECULE
bindingdb_similar_1x70_processed:11
 44 46 0 0 0
SMALL
GASTEIGER

@<TRIPOS>ATOM
      1 C          34.5841   49.2252   36.6452 C.ar    1  LIG1       -0.0604
      2 C          34.7315   50.5652   36.9195 C.ar    1  LIG1       -0.0431
      3 C          35.9823   51.1408   36.8843 C.ar    1  LIG1        0.0443
      4 C          37.0889   50.3798   36.5755 C.ar    1  LIG1       -0.0237
      5 C          36.9370   49.0375   36.3060 C.ar    1  LIG1       -0.0570
      6 C          35.6871   48.4612   36.3389 C.ar    1  LIG1       -0.0614
      7 C          38.4628   51.0307   36.5351 C.3     1  LIG1        0.0173
      8 C          39.1124   51.1151   35.1357 C.3     1  LIG1       -0.0119
      9 N          38.2510   51.9323   34.2132 N.4     1  LIG1        0.2213
     10 C          40.5035   51.7779   35.2161 C.3     1  LIG1        0.0673
     11 C          41.5291   50.9752   35.9954 C.2     1  LIG1        0.2214
     12 O          41.2575   49.8727   36.4524 O.2     1  LIG1       -0.2754
     13 N          42.7327   51.5742   36.1405 N.am    1  LIG1       -0.2923
     14 C          43.1090   52.8686   35.5151 C.3     1  LIG1        0.0332
     15 C          44.3102   52.6692   34.5633 C.3     1  LIG1        0.0422
     16 C          43.7592   50.9181   36.9783 C.3     1  LIG1        0.0746
     17 C          45.1182   51.0982   36.3331 C.ar    1  LIG1        0.1512
     18 N          45.3498   51.8934   35.2560 N.ar    1  LIG1       -0.3048
     19 C          46.6771   51.8089   34.9493 C.ar    1  LIG1        0.2376
     20 N          47.2145   51.0044   35.8165 N.ar    1  LIG1       -0.1250
     21 N          46.2467   50.5625   36.6787 N.ar    1  LIG1       -0.1324
     22 C          47.4050   52.5041   33.8110 C.3     1  LIG1        0.4524
     23 F          47.2800   53.8873   33.8836 F       1  LIG1       -0.1632
     24 F          46.9077   52.1014   32.5762 F       1  LIG1       -0.1632
     25 F          48.7650   52.2132   33.8229 F       1  LIG1       -0.1632
     26 CL         36.1699   52.8346   37.2318 Cl      1  LIG1       -0.0833
     27 H          39.2278   50.0089   34.6854 H       1  LIG1        0.0858
     28 H          33.6764   48.8066   36.6688 H       1  LIG1        0.0618
     29 H          33.9310   51.1210   37.1441 H       1  LIG1        0.0632
     30 H          37.7367   48.4801   36.0832 H       1  LIG1        0.0621
     31 H          35.5804   47.4870   36.1398 H       1  LIG1        0.0618
     32 H          38.3892   52.1433   36.9802 H       1  LIG1        0.0369
     33 H          39.1769   50.3929   37.2573 H       1  LIG1        0.0369
     34 H          37.4167   51.5798   34.1280 H       1  LIG1        0.1997
     35 H          38.5987   51.9845   33.3741 H       1  LIG1        0.1997
     36 H          38.1472   52.7858   34.5119 H       1  LIG1        0.1997
     37 H          40.3435   52.8473   35.7366 H       1  LIG1        0.0414
     38 H          40.8995   51.9056   34.0902 H       1  LIG1        0.0414
     39 H          42.2610   53.4492   34.9008 H       1  LIG1        0.0482
     40 H          43.4707   53.5934   36.4005 H       1  LIG1        0.0482
     41 H          43.9509   52.0636   33.5917 H       1  LIG1        0.0508
     42 H          44.7368   53.7406   34.2326 H       1  LIG1        0.0508
     43 H          43.5274   49.7450   37.0778 H       1  LIG1        0.0545
     44 H          43.7646   51.4179   38.0693 H       1  LIG1        0.0545
@<TRIPOS>BOND
     1     1     2   ar
     2     1    28    1
     3     2     3   ar
     4     2    29    1
     5     3     4   ar
     6     3    26    1
     7     4     5   ar
     8     4     7    1
     9     5     6   ar
    10     5    30    1
    11     6     1   ar
    12     6    31    1
    13     7    32    1
    14     7    33    1
    15     8     7    1
    16     8     9    1
    17     8    10    1
    18     8    27    1
    19     9    34    1
    20     9    35    1
    21     9    36    1
    22    10    11    1
    23    10    37    1
    24    10    38    1
    25    11    12    2
    26    11    13   am
    27    13    14    1
    28    13    16    1
    29    14    15    1
    30    14    39    1
    31    14    40    1
    32    15    18    1
    33    15    41    1
    34    15    42    1
    35    16    43    1
    36    16    44    1
    37    17    16    1
    38    17    18   ar
    39    18    19   ar
    40    19    20   ar
    41    19    22    1
    42    20    21   ar
    43    21    17   ar
    44    22    23    1
    45    22    24    1
    46    22    25    1
