@<TRIPOS>MOLECULE
Copy of bindingdb_similar_1x70_processed:49
 50 52 0 0 0
SMALL
GASTEIGER

@<TRIPOS>ATOM
      1 C          34.4447   49.2630   36.3127 C.ar    1  LIG1        0.1611
      2 C          34.6247   50.5805   36.6666 C.ar    1  LIG1        0.0119
      3 C          35.8931   51.1165   36.7232 C.ar    1  LIG1        0.1296
      4 C          36.9923   50.3335   36.4279 C.ar    1  LIG1       -0.0040
      5 C          36.8075   49.0121   36.0817 C.ar    1  LIG1       -0.0175
      6 C          35.5406   48.4754   36.0199 C.ar    1  LIG1        0.1588
      7 F          35.3772   47.1906   35.6723 F       1  LIG1       -0.2025
      8 F          33.2064   48.7523   36.2532 F       1  LIG1       -0.2024
      9 F          36.0440   52.4043   37.0656 F       1  LIG1       -0.2051
     10 C          38.4036   50.9068   36.4668 C.3     1  LIG1        0.0187
     11 C          39.0769   51.0745   35.0860 C.3     1  LIG1       -0.0118
     12 C          40.4568   51.7542   35.2042 C.3     1  LIG1        0.0673
     13 N          38.2196   51.9270   34.1960 N.4     1  LIG1        0.2213
     14 C          41.4851   50.9710   35.9958 C.2     1  LIG1        0.2216
     15 N          42.6675   51.6030   36.1698 N.am    1  LIG1       -0.2895
     16 C          43.0240   52.8948   35.5245 C.3     1  LIG1        0.0335
     17 C          44.2444   52.6918   34.6017 C.3     1  LIG1        0.0422
     18 C          43.6807   50.9730   37.0484 C.3     1  LIG1        0.0856
     19 N          46.1782   50.6651   36.7968 N.ar    1  LIG1       -0.1321
     20 C          45.0460   51.1728   36.4226 C.ar    1  LIG1        0.1543
     21 N          45.2816   51.9480   35.3314 N.ar    1  LIG1       -0.3046
     22 C          46.6137   51.8783   35.0454 C.ar    1  LIG1        0.2377
     23 N          47.1517   51.1036   35.9387 N.ar    1  LIG1       -0.1250
     24 C          47.3431   52.5561   33.8973 C.3     1  LIG1        0.4524
     25 F          46.8874   52.0885   32.6691 F       1  LIG1       -0.1632
     26 F          47.1662   53.9354   33.9113 F       1  LIG1       -0.1632
     27 F          48.7121   52.3170   33.9476 F       1  LIG1       -0.1632
     28 O          41.2354   49.8586   36.4402 O.2     1  LIG1       -0.2754
     29 C          43.6428   51.4948   38.4973 C.3     1  LIG1       -0.0300
     30 C          42.2969   51.1665   39.1642 C.3     1  LIG1       -0.0632
     31 H          33.8323   51.1516   36.8812 H       1  LIG1        0.0676
     32 H          37.5993   48.4399   35.8690 H       1  LIG1        0.0651
     33 H          38.4109   51.9711   37.0208 H       1  LIG1        0.0369
     34 H          39.0746   50.1600   37.1215 H       1  LIG1        0.0369
     35 H          39.2058   49.9975   34.5735 H       1  LIG1        0.0858
     36 H          40.2722   52.8193   35.7253 H       1  LIG1        0.0414
     37 H          40.8676   51.8917   34.0848 H       1  LIG1        0.0414
     38 H          37.4014   51.5476   34.0678 H       1  LIG1        0.1997
     39 H          38.5936   52.0411   33.3727 H       1  LIG1        0.1997
     40 H          38.0852   52.7529   34.5587 H       1  LIG1        0.1997
     41 H          42.1797   53.4394   34.8738 H       1  LIG1        0.0482
     42 H          43.3497   53.6634   36.3858 H       1  LIG1        0.0482
     43 H          43.9123   52.0656   33.6331 H       1  LIG1        0.0508
     44 H          44.6610   53.7640   34.2626 H       1  LIG1        0.0508
     45 H          43.4779   49.7907   37.0838 H       1  LIG1        0.0582
     46 H          44.5222   50.9691   39.1220 H       1  LIG1        0.0285
     47 H          43.8134   52.6820   38.5109 H       1  LIG1        0.0285
     48 H          41.4067   51.6402   38.5134 H       1  LIG1        0.0230
     49 H          42.2763   51.6333   40.2697 H       1  LIG1        0.0230
     50 H          42.1581   49.9765   39.2283 H       1  LIG1        0.0230
@<TRIPOS>BOND
     1     1     2   ar
     2     1     8    1
     3     2     3   ar
     4     2    31    1
     5     3     4   ar
     6     3     9    1
     7     4     5   ar
     8     4    10    1
     9     5     6   ar
    10     5    32    1
    11     6     1   ar
    12     6     7    1
    13    10    33    1
    14    10    34    1
    15    11    10    1
    16    11    12    1
    17    11    13    1
    18    11    35    1
    19    12    14    1
    20    12    36    1
    21    12    37    1
    22    13    38    1
    23    13    39    1
    24    13    40    1
    25    14    15   am
    26    14    28    2
    27    15    16    1
    28    15    18    1
    29    16    17    1
    30    16    41    1
    31    16    42    1
    32    17    21    1
    33    17    43    1
    34    17    44    1
    35    18    29    1
    36    18    45    1
    37    19    20   ar
    38    20    18    1
    39    20    21   ar
    40    21    22   ar
    41    22    23   ar
    42    22    24    1
    43    23    19   ar
    44    24    25    1
    45    24    26    1
    46    24    27    1
    47    29    30    1
    48    29    46    1
    49    29    47    1
    50    30    48    1
    51    30    49    1
    52    30    50    1
