bindingdb_similar_1x70_processed:23
 OpenBabel04261912203D

 44 46  0  0  1  0  0  0  0  0999 V2000
   34.4624   49.2771   36.3204 C   0  0  0  0  0  0  0  0  0  0  0  0
   34.6432   50.5940   36.6759 C   0  0  0  0  0  0  0  0  0  0  0  0
   35.9124   51.1284   36.7356 C   0  0  0  0  0  0  0  0  0  0  0  0
   37.0112   50.3445   36.4421 C   0  0  0  0  0  0  0  0  0  0  0  0
   36.8255   49.0239   36.0935 C   0  0  0  0  0  0  0  0  0  0  0  0
   35.5581   48.4887   36.0287 C   0  0  0  0  0  0  0  0  0  0  0  0
   38.4241   50.9154   36.4846 C   0  0  0  0  0  0  0  0  0  0  0  0
   39.0985   51.0833   35.1034 C   0  0  1  0  0  0  0  0  0  0  0  0
   38.2435   51.9398   34.2122 N   0  3  0  0  0  0  0  0  0  0  0  0
   40.4781   51.7632   35.2265 C   0  0  0  0  0  0  0  0  0  0  0  0
   41.5045   50.9763   36.0191 C   0  0  0  0  0  0  0  0  0  0  0  0
   41.2533   49.8635   36.4617 O   0  0  0  0  0  0  0  0  0  0  0  0
   42.6866   51.6058   36.1956 N   0  0  0  0  0  0  0  0  0  0  0  0
   43.0496   52.8986   35.5592 C   0  0  0  0  0  0  0  0  0  0  0  0
   44.2689   52.6978   34.6334 C   0  0  0  0  0  0  0  0  0  0  0  0
   43.6996   50.9812   37.0719 C   0  0  0  0  0  0  0  0  0  0  0  0
   45.0668   51.1739   36.4512 C   0  0  0  0  0  0  0  0  0  0  0  0
   45.3043   51.9508   35.3616 N   0  0  0  0  0  0  0  0  0  0  0  0
   46.6369   51.8800   35.0780 C   0  0  0  0  0  0  0  0  0  0  0  0
   47.1723   51.1037   35.9716 N   0  0  0  0  0  0  0  0  0  0  0  0
   46.1972   50.6644   36.8281 N   0  0  0  0  0  0  0  0  0  0  0  0
   35.3939   47.2043   35.6794 F   0  0  0  0  0  0  0  0  0  0  0  0
   36.0639   52.4156   37.0798 F   0  0  0  0  0  0  0  0  0  0  0  0
   47.3777   52.5553   33.9351 C   0  0  0  0  0  0  0  0  0  0  0  0
   33.2236   48.7678   36.2582 F   0  0  0  0  0  0  0  0  0  0  0  0
   46.9149   52.0933   32.7056 F   0  0  0  0  0  0  0  0  0  0  0  0
   47.1937   53.9354   33.9496 F   0  0  0  0  0  0  0  0  0  0  0  0
   33.8512   51.1660   36.8895 H   0  0  0  0  0  0  0  0  0  0  0  0
   37.6171   48.4511   35.8807 H   0  0  0  0  0  0  0  0  0  0  0  0
   38.4296   51.9810   37.0378 H   0  0  0  0  0  0  0  0  0  0  0  0
   39.0912   50.1662   37.1427 H   0  0  0  0  0  0  0  0  0  0  0  0
   39.2318   50.0055   34.5929 H   0  0  0  0  0  0  0  0  0  0  0  0
   37.4315   51.5590   34.0707 H   0  0  0  0  0  0  0  0  0  0  0  0
   38.6222   52.0670   33.3963 H   0  0  0  0  0  0  0  0  0  0  0  0
   38.0998   52.7584   34.5794 H   0  0  0  0  0  0  0  0  0  0  0  0
   40.2948   52.8286   35.7486 H   0  0  0  0  0  0  0  0  0  0  0  0
   40.8950   51.9011   34.1091 H   0  0  0  0  0  0  0  0  0  0  0  0
   42.2076   53.4552   34.9149 H   0  0  0  0  0  0  0  0  0  0  0  0
   43.3819   53.6481   36.4352 H   0  0  0  0  0  0  0  0  0  0  0  0
   43.9383   52.0722   33.6641 H   0  0  0  0  0  0  0  0  0  0  0  0
   44.6871   53.7695   34.2947 H   0  0  0  0  0  0  0  0  0  0  0  0
   43.4858   49.8058   37.1845 H   0  0  0  0  0  0  0  0  0  0  0  0
   43.6685   51.4946   38.1560 H   0  0  0  0  0  0  0  0  0  0  0  0
   48.5491   52.3147   34.0298 H   0  0  0  0  0  0  0  0  0  0  0  0
  1  2  2  0  0  0  0
  1 25  1  0  0  0  0
  2  3  1  0  0  0  0
  2 28  1  0  0  0  0
  3  4  2  0  0  0  0
  3 23  1  0  0  0  0
  4  5  1  0  0  0  0
  4  7  1  0  0  0  0
  5  6  2  0  0  0  0
  5 29  1  0  0  0  0
  6  1  1  0  0  0  0
  6 22  1  0  0  0  0
  7 30  1  0  0  0  0
  7 31  1  0  0  0  0
  8  7  1  0  0  0  0
  8  9  1  0  0  0  0
  8 10  1  0  0  0  0
  8 32  1  6  0  0  0
  9 33  1  0  0  0  0
  9 34  1  0  0  0  0
  9 35  1  0  0  0  0
 10 11  1  0  0  0  0
 10 36  1  0  0  0  0
 10 37  1  0  0  0  0
 11 12  2  0  0  0  0
 11 13  1  0  0  0  0
 13 14  1  0  0  0  0
 13 16  1  0  0  0  0
 14 15  1  0  0  0  0
 14 38  1  0  0  0  0
 14 39  1  0  0  0  0
 15 18  1  0  0  0  0
 15 40  1  0  0  0  0
 15 41  1  0  0  0  0
 16 42  1  0  0  0  0
 16 43  1  0  0  0  0
 17 16  1  0  0  0  0
 17 18  1  0  0  0  0
 18 19  1  0  0  0  0
 19 20  2  0  0  0  0
 19 24  1  0  0  0  0
 20 21  1  0  0  0  0
 21 17  2  0  0  0  0
 24 26  1  0  0  0  0
 24 27  1  0  0  0  0
 24 44  1  0  0  0  0
M  CHG  1   9   1
M  END
>  <Mean(IC50 fixed2)>
29

>  <First(BindingDB Ligand Name)>
CHEMBL390240

>  <Concatenate(Target Name Assigned by Curator or DataSource)>
Dipeptidyl Peptidase IV (DPP-IV)

>  <First(Target Source Organism According to Curator or DataSource)>
Homo sapiens

>  <First(Curation/DataSource)>
ChEMBL

>  <First(Article DOI)>
10.1016/j.bmcl.2007.03.098

>  <Mean(PMID)>
17434732

>  <First(Authors)>
Kim, D; Kowalchick, JE; Edmondson, SD; Mastracchio, A; Xu, J; Eiermann, GJ; Leiting, B; Wu, JK; Pryor, KD; Patel, RA; He, H; Lyons, KA; Thornberry, NA; Weber, AE

>  <First(Institution)>
Merck Research Laboratories<span class=m1fontSize>Curated by</span> <a href=http://www.ebi.ac.uk/chembl/>ChEMBL</a>

>  <First(Link to Ligand in BindingDB)>
http://www.bindingdb.org/bind/chemsearch/marvin/MolStructure.jsp?monomerid=50210649

>  <First(Link to Ligand-Target Pair in BindingDB)>
http://www.bindingdb.org/jsp/dbsearch/PrimarySearch_ki.jsp?energyterm=kJ/mole&tag=r21&monomerid=50210649&enzyme=Dipeptidyl+Peptidase+IV+%28DPP-IV%29&column=ki&startPg=0&Increment=50&submit=Search

>  <Mean(PubChem CID)>
44431219

>  <Mean(PubChem SID)>
104087136

>  <First(ZINC ID of Ligand)>
ZINC28820857

>  <Concatenate*(UniProt (SwissProt) Entry Name of Target Chain)>
DPP4_HUMAN

>  <Mean(Number of Protein Chains in Target (>1 implies a multichain complex))>
1

>  <Median(pIC50)>
7.53760200210104

>  <Journal>
BiorgMedChemLett2007

>  <Activity Classes>
7.53760200210104

>  <Conformer_cresset>
1

>  <Similarity_cresset>
0.856

>  <Favorite_cresset>
false

>  <Activity (Median(pIC50))_cresset>
7.54

>  <LE (Median(pIC50))_cresset>
0.391

>  <LipE (Median(pIC50))_cresset>
4.8

>  <Tags_cresset>
training

>  <Confs_cresset>
2

>  <Conf#_cresset>
1

>  <Alns_cresset>
2

>  <MW_cresset>
390.3

>  <#Atoms_cresset>
27

>  <SlogP_cresset>
2.7

>  <TPSA_cresset>
78.7

>  <Flexibility_cresset>
5.9

>  <#RB_cresset>
6

>  <Rof5_cresset>
0

>  <Filename_cresset>
bindingdb_similar_1x70_processed.sdf

>  <Notes_cresset>
49

>  <Selected Alignment_cresset>
true

>  <Alignment Cluster Centre_cresset>
true

>  <_cresset_fieldpoints>
-5      47.803349      49.860798      37.255646    -11.7746
-5      40.946815      48.164787      37.004292     -7.1688
-5      32.806133      45.976486      35.664669     -2.6725
-6      50.190697      53.168072      32.750618      3.6646
-6      41.976929      53.443169      32.733639     11.0079
-6      35.752254      50.526924      33.251984      5.4560
-7      37.121349      49.385044      32.906151     -2.4022
-7      40.039501      47.935455      35.985653     -2.5473
-7      40.907364      52.517757      38.388165     -2.6346
-7      41.961597      53.339977      32.301636     -1.6892
-7      39.961098      54.401123      33.572224     -1.8755
-7      38.494408      54.484928      36.389114     -2.0535
-7      43.126247      49.633087      34.034782     -2.6992
-7      40.161640      50.333435      32.109707     -1.5188
-7      47.198956      48.669186      35.691357     -1.3932
-7      47.864586      51.935070      38.173203     -1.3823
-7      49.465687      52.066811      36.661129     -1.2279
-7      35.377434      50.431965      33.243599     -2.5450
-7      36.033035      48.995495      39.459309     -2.1445
-7      44.533951      54.118046      31.706934     -1.5537
-7      48.904099      49.582561      34.695759     -1.2533
-7      49.980831      53.454697      32.014908     -1.0443
-7      45.793041      54.496956      36.976784     -2.2532
-8      35.731842      49.807758      36.381256      7.2635
-8      39.535896      51.326180      35.954754      4.9363
-8      43.490864      53.287334      34.767761      3.7911
-8      37.028778      51.184875      36.656750      5.6124
-8      44.206642      50.828285      37.406555      2.7912
-8      47.083435      52.653206      33.858749      5.0503

$$$$
