bindingdb_similar_1x70_processed:44
 OpenBabel04261912203D

 47 49  0  0  1  0  0  0  0  0999 V2000
   34.4454   49.2658   36.3114 C   0  0  0  0  0  0  0  0  0  0  0  0
   34.6266   50.5836   36.6638 C   0  0  0  0  0  0  0  0  0  0  0  0
   35.8956   51.1181   36.7226 C   0  0  0  0  0  0  0  0  0  0  0  0
   36.9939   50.3331   36.4298 C   0  0  0  0  0  0  0  0  0  0  0  0
   36.8080   49.0125   36.0826 C   0  0  0  0  0  0  0  0  0  0  0  0
   35.5411   48.4771   36.0202 C   0  0  0  0  0  0  0  0  0  0  0  0
   38.4066   50.9022   36.4688 C   0  0  0  0  0  0  0  0  0  0  0  0
   39.0769   51.0710   35.0853 C   0  0  2  0  0  0  0  0  0  0  0  0
   40.4570   51.7495   35.2092 C   0  0  0  0  0  0  0  0  0  0  0  0
   38.2206   51.9257   34.1906 N   0  3  0  0  0  0  0  0  0  0  0  0
   41.4863   50.9687   36.0025 C   0  0  0  0  0  0  0  0  0  0  0  0
   42.6688   51.6000   36.1722 N   0  0  0  0  0  0  0  0  0  0  0  0
   41.2387   49.8552   36.4457 O   0  0  0  0  0  0  0  0  0  0  0  0
   43.0226   52.8938   35.5225 C   0  0  0  0  0  0  0  0  0  0  0  0
   44.2368   52.7105   34.5857 C   0  0  0  0  0  0  0  0  0  0  0  0
   43.6835   50.9583   37.0386 C   0  0  1  0  0  0  0  0  0  0  0  0
   45.0458   51.1693   36.4163 C   0  0  0  0  0  0  0  0  0  0  0  0
   45.2465   51.9599   35.3398 N   0  0  0  0  0  0  0  0  0  0  0  0
   46.5711   51.9404   35.0588 N   0  0  0  0  0  0  0  0  0  0  0  0
   47.1116   51.1617   35.9545 C   0  0  0  0  0  0  0  0  0  0  0  0
   46.1967   50.6618   36.8102 N   0  0  0  0  0  0  0  0  0  0  0  0
   36.0465   52.4064   37.0633 F   0  0  0  0  0  0  0  0  0  0  0  0
   33.2065   48.7558   36.2516 F   0  0  0  0  0  0  0  0  0  0  0  0
   35.3770   47.1921   35.6733 F   0  0  0  0  0  0  0  0  0  0  0  0
   48.5937   50.8772   36.0534 C   0  0  0  0  0  0  0  0  0  0  0  0
   49.1910   51.7821   36.9246 F   0  0  0  0  0  0  0  0  0  0  0  0
   49.2290   50.9873   34.8202 F   0  0  0  0  0  0  0  0  0  0  0  0
   48.8284   49.5964   36.5436 F   0  0  0  0  0  0  0  0  0  0  0  0
   43.6062   51.4806   38.4836 C   0  0  0  0  0  0  0  0  0  0  0  0
   33.8346   51.1562   36.8753 H   0  0  0  0  0  0  0  0  0  0  0  0
   37.5996   48.4401   35.8690 H   0  0  0  0  0  0  0  0  0  0  0  0
   38.4131   51.9675   37.0203 H   0  0  0  0  0  0  0  0  0  0  0  0
   39.0728   50.1565   37.1319 H   0  0  0  0  0  0  0  0  0  0  0  0
   39.2142   49.9904   34.5815 H   0  0  0  0  0  0  0  0  0  0  0  0
   40.2733   52.8164   35.7269 H   0  0  0  0  0  0  0  0  0  0  0  0
   40.8721   51.8819   34.0910 H   0  0  0  0  0  0  0  0  0  0  0  0
   37.3991   51.5565   34.0564 H   0  0  0  0  0  0  0  0  0  0  0  0
   38.5902   52.0457   33.3667 H   0  0  0  0  0  0  0  0  0  0  0  0
   38.0862   52.7525   34.5486 H   0  0  0  0  0  0  0  0  0  0  0  0
   42.1721   53.4461   34.8860 H   0  0  0  0  0  0  0  0  0  0  0  0
   43.3571   53.6539   36.3881 H   0  0  0  0  0  0  0  0  0  0  0  0
   43.9124   52.0804   33.6174 H   0  0  0  0  0  0  0  0  0  0  0  0
   44.6700   53.7766   34.2444 H   0  0  0  0  0  0  0  0  0  0  0  0
   43.4817   49.7762   37.0666 H   0  0  0  0  0  0  0  0  0  0  0  0
   42.4967   51.3108   38.9079 H   0  0  0  0  0  0  0  0  0  0  0  0
   44.3884   50.8799   39.1677 H   0  0  0  0  0  0  0  0  0  0  0  0
   43.8712   52.6504   38.5216 H   0  0  0  0  0  0  0  0  0  0  0  0
  1  2  2  0  0  0  0
  1 23  1  0  0  0  0
  2  3  1  0  0  0  0
  2 30  1  0  0  0  0
  3  4  2  0  0  0  0
  3 22  1  0  0  0  0
  4  5  1  0  0  0  0
  4  7  1  0  0  0  0
  5  6  2  0  0  0  0
  5 31  1  0  0  0  0
  6  1  1  0  0  0  0
  6 24  1  0  0  0  0
  7 32  1  0  0  0  0
  7 33  1  0  0  0  0
  8  7  1  0  0  0  0
  8  9  1  0  0  0  0
  8 10  1  0  0  0  0
  8 34  1  6  0  0  0
  9 11  1  0  0  0  0
  9 35  1  0  0  0  0
  9 36  1  0  0  0  0
 10 37  1  0  0  0  0
 10 38  1  0  0  0  0
 10 39  1  0  0  0  0
 11 12  1  0  0  0  0
 11 13  2  0  0  0  0
 12 14  1  0  0  0  0
 12 16  1  0  0  0  0
 14 15  1  0  0  0  0
 14 40  1  0  0  0  0
 14 41  1  0  0  0  0
 15 18  1  0  0  0  0
 15 42  1  0  0  0  0
 15 43  1  0  0  0  0
 16 29  1  0  0  0  0
 16 44  1  1  0  0  0
 17 16  1  0  0  0  0
 17 18  1  0  0  0  0
 18 19  1  0  0  0  0
 19 20  2  0  0  0  0
 20 21  1  0  0  0  0
 20 25  1  0  0  0  0
 21 17  2  0  0  0  0
 25 26  1  0  0  0  0
 25 27  1  0  0  0  0
 25 28  1  0  0  0  0
 29 45  1  0  0  0  0
 29 46  1  0  0  0  0
 29 47  1  0  0  0  0
M  CHG  1  10   1
M  END
>  <Mean(IC50 fixed2)>
149.5

>  <First(BindingDB Ligand Name)>
CHEMBL250787

>  <Concatenate(Target Name Assigned by Curator or DataSource)>
Dipeptidyl Peptidase IV (DPP-IV), Dipeptidyl Peptidase IV (DPP-IV)

>  <First(Target Source Organism According to Curator or DataSource)>
Homo sapiens

>  <First(Curation/DataSource)>
ChEMBL

>  <First(Article DOI)>
10.1016/j.bmcl.2007.07.100

>  <Mean(PMID)>
17827003

>  <First(Authors)>
Kowalchick, JE; Leiting, B; Pryor, KD; Marsilio, F; Wu, JK; He, H; Lyons, KA; Eiermann, GJ; Petrov, A; Scapin, G; Patel, RA; Thornberry, NA; Weber, AE; Kim, D

>  <First(Institution)>
Merck Research Laboratories<span class=m1fontSize>Curated by</span> <a href=http://www.ebi.ac.uk/chembl/>ChEMBL</a>

>  <First(Link to Ligand in BindingDB)>
http://www.bindingdb.org/bind/chemsearch/marvin/MolStructure.jsp?monomerid=50221443

>  <First(Link to Ligand-Target Pair in BindingDB)>
http://www.bindingdb.org/jsp/dbsearch/PrimarySearch_ki.jsp?energyterm=kJ/mole&tag=r21&monomerid=50221443&enzyme=Dipeptidyl+Peptidase+IV+%28DPP-IV%29&column=ki&startPg=0&Increment=50&submit=Search

>  <First(PDB ID(s) for Ligand-Target Complex)>
2QOE

>  <Mean(PubChem CID)>
34053025

>  <Mean(PubChem SID)>
104094106

>  <First(DrugBank ID of Ligand)>
DB07081

>  <First(ZINC ID of Ligand)>
ZINC13982511

>  <Concatenate*(UniProt (SwissProt) Entry Name of Target Chain)>
DPP4_HUMAN, DPP4_HUMAN

>  <Mean(Number of Protein Chains in Target (>1 implies a multichain complex))>
1

>  <Median(pIC50)>
7.602

>  <Journal>
Kow BioorgMedChemLett2007

>  <Activity Classes>
7.602

>  <Conformer_cresset>
1

>  <Similarity_cresset>
0.770

>  <Favorite_cresset>
false

>  <Activity (Median(pIC50))_cresset>
7.6

>  <LE (Median(pIC50))_cresset>
0.367

>  <LipE (Median(pIC50))_cresset>
4.2

>  <Tags_cresset>
training

>  <Confs_cresset>
3

>  <Conf#_cresset>
1

>  <Alns_cresset>
3

>  <MW_cresset>
422.4

>  <#Atoms_cresset>
29

>  <SlogP_cresset>
3.4

>  <TPSA_cresset>
78.7

>  <Flexibility_cresset>
4.9

>  <#RB_cresset>
6

>  <Rof5_cresset>
0

>  <Filename_cresset>
bindingdb_similar_1x70_processed.sdf

>  <Notes_cresset>
29b (RR) Xray

>  <Selected Alignment_cresset>
true

>  <Alignment Cluster Centre_cresset>
true

>  <_cresset_fieldpoints>
-5      46.501022      49.241592      38.225658     -4.1977
-5      40.638317      48.181355      36.744831     -6.7141
-5      47.345634      52.609966      33.370026     -2.2895
-5      32.785709      45.967121      35.648335     -2.5620
-5      50.362965      49.932358      39.101479     -1.8174
-5      51.947819      50.041061      36.533978     -1.6680
-5      50.609570      48.241631      34.512981     -1.7697
-6      35.709438      50.532181      33.249409      5.5720
-6      41.855732      53.454315      32.717331     10.8543
-6      40.692169      54.054356      33.356087     10.7134
-7      37.096264      49.380096      32.894222     -2.4119
-7      40.643070      52.935711      38.221649     -2.8679
-7      43.062038      49.609219      34.026783     -2.6366
-7      39.940441      54.382950      33.543201     -1.8827
-7      40.136120      50.313293      32.096050     -1.5161
-7      41.835506      53.373283      32.293156     -1.6224
-7      43.313644      56.055759      34.883049     -1.1274
-7      45.913345      54.178982      37.104656     -2.4600
-7      46.203232      50.714619      32.899513     -1.9945
-7      36.009605      48.987553      39.449802     -2.1450
-7      38.480068      54.469196      36.369465     -2.0609
-7      35.364376      50.399094      33.226933     -2.5442
-7      46.942272      50.505524      39.215092     -2.2491
-7      52.123096      50.238480      36.365303     -1.1051
-7      40.912285      49.318207      38.653080     -2.3157
-7      40.024109      47.925140      35.988827     -2.5662
-8      35.714821      49.796741      36.370296      7.2648
-8      39.515209      51.309143      35.936657      4.9449
-8      44.146778      51.214504      37.772121      4.1972
-8      43.429379      53.303310      34.726284      3.7335
-8      37.016602      51.172302      36.643394      5.6129
-8      48.688847      50.858913      36.068199      5.5949

$$$$
