bindingdb_similar_1x70_processed:15
 OpenBabel04261912203D

 44 46  0  0  1  0  0  0  0  0999 V2000
   35.5408   48.4753   36.0200 C   0  0  0  0  0  0  0  0  0  0  0  0
   34.4453   49.2638   36.3127 C   0  0  0  0  0  0  0  0  0  0  0  0
   34.6270   50.5820   36.6664 C   0  0  0  0  0  0  0  0  0  0  0  0
   35.8959   51.1142   36.7222 C   0  0  0  0  0  0  0  0  0  0  0  0
   36.9907   50.3314   36.4269 C   0  0  0  0  0  0  0  0  0  0  0  0
   36.8078   49.0108   36.0814 C   0  0  0  0  0  0  0  0  0  0  0  0
   35.3775   47.1905   35.6728 F   0  0  0  0  0  0  0  0  0  0  0  0
   33.2066   48.7525   36.2534 F   0  0  0  0  0  0  0  0  0  0  0  0
   38.3979   50.9116   36.4667 C   0  0  0  0  0  0  0  0  0  0  0  0
   39.0755   51.0733   35.0860 C   0  0  2  0  0  0  0  0  0  0  0  0
   40.4545   51.7551   35.2062 C   0  0  0  0  0  0  0  0  0  0  0  0
   41.4840   50.9702   35.9960 C   0  0  0  0  0  0  0  0  0  0  0  0
   38.2195   51.9265   34.1942 N   0  3  0  0  0  0  0  0  0  0  0  0
   41.2351   49.8579   36.4404 O   0  0  0  0  0  0  0  0  0  0  0  0
   43.6811   50.9788   37.0448 C   0  0  0  0  0  0  0  0  0  0  0  0
   43.0264   52.8937   35.5306 C   0  0  0  0  0  0  0  0  0  0  0  0
   44.2442   52.6925   34.6026 C   0  0  0  0  0  0  0  0  0  0  0  0
   42.6658   51.6011   36.1693 N   0  0  0  0  0  0  0  0  0  0  0  0
   45.0470   51.1726   36.4216 C   0  0  0  0  0  0  0  0  0  0  0  0
   46.6141   51.8781   35.0452 C   0  0  0  0  0  0  0  0  0  0  0  0
   45.2821   51.9478   35.3306 N   0  0  0  0  0  0  0  0  0  0  0  0
   46.1786   50.6649   36.7971 N   0  0  0  0  0  0  0  0  0  0  0  0
   47.1519   51.1035   35.9388 N   0  0  0  0  0  0  0  0  0  0  0  0
   47.3433   52.5559   33.8970 C   0  0  0  0  0  0  0  0  0  0  0  0
   47.1668   53.9352   33.9110 F   0  0  0  0  0  0  0  0  0  0  0  0
   46.8878   52.0882   32.6688 F   0  0  0  0  0  0  0  0  0  0  0  0
   48.7124   52.3166   33.9474 F   0  0  0  0  0  0  0  0  0  0  0  0
   33.8353   51.1544   36.8808 H   0  0  0  0  0  0  0  0  0  0  0  0
   36.0224   52.0731   36.9759 H   0  0  0  0  0  0  0  0  0  0  0  0
   37.6002   48.4395   35.8682 H   0  0  0  0  0  0  0  0  0  0  0  0
   38.3818   51.9834   37.0075 H   0  0  0  0  0  0  0  0  0  0  0  0
   39.0671   50.1704   37.1310 H   0  0  0  0  0  0  0  0  0  0  0  0
   39.2103   49.9948   34.5762 H   0  0  0  0  0  0  0  0  0  0  0  0
   40.2652   52.8165   35.7336 H   0  0  0  0  0  0  0  0  0  0  0  0
   40.8689   51.8987   34.0884 H   0  0  0  0  0  0  0  0  0  0  0  0
   37.4082   51.5433   34.0512 H   0  0  0  0  0  0  0  0  0  0  0  0
   38.5984   52.0558   33.3779 H   0  0  0  0  0  0  0  0  0  0  0  0
   38.0719   52.7453   34.5611 H   0  0  0  0  0  0  0  0  0  0  0  0
   43.4689   49.8037   37.1597 H   0  0  0  0  0  0  0  0  0  0  0  0
   43.6514   51.4936   38.1278 H   0  0  0  0  0  0  0  0  0  0  0  0
   42.1811   53.4508   34.8913 H   0  0  0  0  0  0  0  0  0  0  0  0
   43.3622   53.6427   36.4052 H   0  0  0  0  0  0  0  0  0  0  0  0
   43.9125   52.0656   33.6345 H   0  0  0  0  0  0  0  0  0  0  0  0
   44.6605   53.7642   34.2619 H   0  0  0  0  0  0  0  0  0  0  0  0
  1  2  2  0  0  0  0
  1  6  1  0  0  0  0
  1  7  1  0  0  0  0
  2  3  1  0  0  0  0
  2  8  1  0  0  0  0
  3  4  2  0  0  0  0
  3 28  1  0  0  0  0
  4  5  1  0  0  0  0
  4 29  1  0  0  0  0
  5  6  2  0  0  0  0
  5  9  1  0  0  0  0
  6 30  1  0  0  0  0
  9 31  1  0  0  0  0
  9 32  1  0  0  0  0
 10  9  1  0  0  0  0
 10 11  1  0  0  0  0
 10 13  1  0  0  0  0
 10 33  1  6  0  0  0
 11 12  1  0  0  0  0
 11 34  1  0  0  0  0
 11 35  1  0  0  0  0
 12 14  2  0  0  0  0
 12 18  1  0  0  0  0
 13 36  1  0  0  0  0
 13 37  1  0  0  0  0
 13 38  1  0  0  0  0
 15 18  1  0  0  0  0
 15 19  1  0  0  0  0
 15 39  1  0  0  0  0
 15 40  1  0  0  0  0
 16 17  1  0  0  0  0
 16 41  1  0  0  0  0
 16 42  1  0  0  0  0
 17 21  1  0  0  0  0
 17 43  1  0  0  0  0
 17 44  1  0  0  0  0
 18 16  1  0  0  0  0
 20 23  2  0  0  0  0
 20 24  1  0  0  0  0
 21 19  1  0  0  0  0
 21 20  1  0  0  0  0
 22 19  2  0  0  0  0
 22 23  1  0  0  0  0
 24 25  1  0  0  0  0
 24 26  1  0  0  0  0
 24 27  1  0  0  0  0
M  CHG  1  13   1
M  END
>  <Mean(IC50 fixed2)>
128

>  <First(BindingDB Ligand Name)>
Triazolopiperazine Analogue 24

>  <Concatenate(Target Name Assigned by Curator or DataSource)>
Dipeptidyl Peptidase IV (DPP-IV), Dipeptidyl Peptidase IV (DPP-IV), Dipeptidyl Peptidase IV (DPP-IV)

>  <First(Target Source Organism According to Curator or DataSource)>
Homo sapiens (human)

>  <First(Curation/DataSource)>
Curated from the literature by BindingDB

>  <First(Article DOI)>
10.1021/jm0493156

>  <Mean(PMID)>
17213035

>  <First(Authors)>
Kim, D; Wang, L; Beconi, M; Eiermann, GJ; Fisher, MH; He, H; Hickey, GJ; Kowalchick, JE; Leiting, B; Lyons, K; Marsilio, F; McCann, ME; Patel, RA; Petrov, A; Scapin, G; Patel, SB; Roy, RS; Wu, JK; Wyvratt, MJ; Zhang, BB; Zhu, L; Thornberry, NA; Weber, AE

>  <First(Institution)>
Merck Research Laboratories

>  <First(Link to Ligand in BindingDB)>
http://www.bindingdb.org/bind/chemsearch/marvin/MolStructure.jsp?monomerid=11159

>  <First(Link to Ligand-Target Pair in BindingDB)>
http://www.bindingdb.org/jsp/dbsearch/PrimarySearch_ki.jsp?energyterm=kJ/mole&tag=r21&monomerid=11159&enzyme=Dipeptidyl+Peptidase+IV+%28DPP-IV%29&column=ki&startPg=0&Increment=50&submit=Search

>  <Mean(PubChem CID)>
10600466.6666667

>  <Mean(PubChem SID)>
84895326.3333333

>  <First(ZINC ID of Ligand)>
ZINC13607026

>  <Concatenate*(UniProt (SwissProt) Entry Name of Target Chain)>
DPP4_HUMAN, DPP4_HUMAN, DPP4_HUMAN

>  <Mean(Number of Protein Chains in Target (>1 implies a multichain complex))>
1

>  <Median(pIC50)>
6.89279003035213

>  <Journal>
JMedChem2005, BiorgMedChemLett2007

>  <Activity Classes>
6.89279003035213

>  <Conformer_cresset>
1

>  <Similarity_cresset>
0.863

>  <Favorite_cresset>
false

>  <Activity (Median(pIC50))_cresset>
6.89

>  <LE (Median(pIC50))_cresset>
0.357

>  <LipE (Median(pIC50))_cresset>
4.5

>  <Tags_cresset>
training

>  <Confs_cresset>
2

>  <Conf#_cresset>
1

>  <Alns_cresset>
2

>  <MW_cresset>
390.3

>  <#Atoms_cresset>
27

>  <SlogP_cresset>
2.4

>  <TPSA_cresset>
78.7

>  <Flexibility_cresset>
4.9

>  <#RB_cresset>
6

>  <Rof5_cresset>
0

>  <Filename_cresset>
bindingdb_similar_1x70_processed.sdf

>  <Notes_cresset>
24, 23

>  <Selected Alignment_cresset>
true

>  <Alignment Cluster Centre_cresset>
true

>  <_cresset_fieldpoints>
-5      47.842731      49.893616      37.187618    -12.2132
-5      32.800396      45.977131      35.672569     -3.1934
-5      40.554104      48.207218      36.687878     -7.4026
-5      36.561680      48.659622      39.202438     -1.4834
-5      37.419918      45.085976      35.923191     -1.2266
-6      38.653168      54.361683      35.867065     10.1923
-6      42.024269      53.448395      32.705967     11.8814
-7      35.973557      48.831757      39.424789     -2.0346
-7      37.339195      54.202141      36.432026     -1.9802
-7      35.470379      53.103565      34.193924     -1.8694
-7      37.123684      49.355522      32.889824     -2.3773
-7      40.020115      47.928253      35.979992     -2.5418
-7      35.416508      50.310043      33.188324     -2.4600
-7      40.913925      52.520988      38.365585     -2.5960
-7      39.939522      54.392117      33.544125     -1.8625
-7      40.140347      50.329315      32.093170     -1.5185
-7      41.935894      53.329529      32.274223     -1.6891
-7      44.404854      49.502388      33.624767     -2.1871
-7      45.786469      54.496761      36.925198     -2.3047
-7      47.292732      48.728313      35.540108     -1.4941
-7      44.523407      54.120857      31.676874     -1.5840
-7      43.104160      49.626064      34.009766     -2.7021
-7      47.965229      52.006222      38.022316     -1.4862
-7      49.058781      54.149704      31.148741     -1.1104
-8      35.714302      49.788620      36.366276      7.2401
-8      39.512192      51.316639      35.934967      4.9238
-8      43.464649      53.280888      34.735729      3.7914
-8      44.187706      50.823532      37.377411      2.7919
-8      47.363777      52.601341      33.829426      5.6564

$$$$
