bindingdb_similar_1x70_processed:70
 OpenBabel04261912203D

 57 60  0  0  1  0  0  0  0  0999 V2000
   34.4507   49.2571   36.3267 C   0  0  0  0  0  0  0  0  0  0  0  0
   34.6272   50.5775   36.6717 C   0  0  0  0  0  0  0  0  0  0  0  0
   35.8944   51.1169   36.7265 C   0  0  0  0  0  0  0  0  0  0  0  0
   36.9958   50.3350   36.4370 C   0  0  0  0  0  0  0  0  0  0  0  0
   36.8145   49.0110   36.0982 C   0  0  0  0  0  0  0  0  0  0  0  0
   35.5490   48.4706   36.0395 C   0  0  0  0  0  0  0  0  0  0  0  0
   35.3890   47.1832   35.6995 F   0  0  0  0  0  0  0  0  0  0  0  0
   33.2138   48.7431   36.2700 F   0  0  0  0  0  0  0  0  0  0  0  0
   36.0422   52.4073   37.0607 F   0  0  0  0  0  0  0  0  0  0  0  0
   38.4044   50.9133   36.4700 C   0  0  0  0  0  0  0  0  0  0  0  0
   39.0725   51.0747   35.0854 C   0  0  2  0  0  0  0  0  0  0  0  0
   40.4536   51.7523   35.2031 C   0  0  0  0  0  0  0  0  0  0  0  0
   38.2133   51.9202   34.1835 N   0  3  0  0  0  0  0  0  0  0  0  0
   41.4858   50.9711   35.9948 C   0  0  0  0  0  0  0  0  0  0  0  0
   42.6727   51.5980   36.1547 N   0  0  0  0  0  0  0  0  0  0  0  0
   43.0279   52.8913   35.5112 C   0  0  0  0  0  0  0  0  0  0  0  0
   44.2540   52.6919   34.5948 C   0  0  0  0  0  0  0  0  0  0  0  0
   43.6823   50.9639   37.0323 C   0  0  1  0  0  0  0  0  0  0  0  0
   46.1841   50.6728   36.8020 N   0  0  0  0  0  0  0  0  0  0  0  0
   45.0519   51.1745   36.4191 C   0  0  0  0  0  0  0  0  0  0  0  0
   45.2902   51.9510   35.3295 N   0  0  0  0  0  0  0  0  0  0  0  0
   46.6239   51.8845   35.0514 C   0  0  0  0  0  0  0  0  0  0  0  0
   47.1604   51.1146   35.9495 N   0  0  0  0  0  0  0  0  0  0  0  0
   47.3549   52.5581   33.9033 C   0  0  0  0  0  0  0  0  0  0  0  0
   46.8978   52.0876   32.6767 F   0  0  0  0  0  0  0  0  0  0  0  0
   48.7227   52.3146   33.9568 F   0  0  0  0  0  0  0  0  0  0  0  0
   47.1793   53.9375   33.9158 F   0  0  0  0  0  0  0  0  0  0  0  0
   41.2377   49.8631   36.4528 O   0  0  0  0  0  0  0  0  0  0  0  0
   43.5955   51.4778   38.4844 C   0  0  0  0  0  0  0  0  0  0  0  0
   42.2919   51.1723   39.2103 C   0  0  0  0  0  0  0  0  0  0  0  0
   41.2410   52.0588   39.1156 C   0  0  0  0  0  0  0  0  0  0  0  0
   40.0631   51.8183   39.7845 C   0  0  0  0  0  0  0  0  0  0  0  0
   39.9260   50.6828   40.5488 C   0  0  0  0  0  0  0  0  0  0  0  0
   40.9655   49.7864   40.6379 C   0  0  0  0  0  0  0  0  0  0  0  0
   42.1491   50.0296   39.9737 C   0  0  0  0  0  0  0  0  0  0  0  0
   43.1626   49.1558   40.0840 F   0  0  0  0  0  0  0  0  0  0  0  0
   33.8334   51.1485   36.8811 H   0  0  0  0  0  0  0  0  0  0  0  0
   37.6081   48.4396   35.8880 H   0  0  0  0  0  0  0  0  0  0  0  0
   38.4068   51.9824   37.0158 H   0  0  0  0  0  0  0  0  0  0  0  0
   39.0750   50.1733   37.1342 H   0  0  0  0  0  0  0  0  0  0  0  0
   39.2068   49.9915   34.5880 H   0  0  0  0  0  0  0  0  0  0  0  0
   40.2738   52.8198   35.7206 H   0  0  0  0  0  0  0  0  0  0  0  0
   40.8642   51.8849   34.0834 H   0  0  0  0  0  0  0  0  0  0  0  0
   37.3897   51.5553   34.0645 H   0  0  0  0  0  0  0  0  0  0  0  0
   38.5749   52.0193   33.3552 H   0  0  0  0  0  0  0  0  0  0  0  0
   38.0876   52.7541   34.5235 H   0  0  0  0  0  0  0  0  0  0  0  0
   42.1836   53.4363   34.8605 H   0  0  0  0  0  0  0  0  0  0  0  0
   43.3499   53.6564   36.3769 H   0  0  0  0  0  0  0  0  0  0  0  0
   44.6656   53.7646   34.2502 H   0  0  0  0  0  0  0  0  0  0  0  0
   43.9264   52.0574   33.6304 H   0  0  0  0  0  0  0  0  0  0  0  0
   43.4885   49.7795   37.0488 H   0  0  0  0  0  0  0  0  0  0  0  0
   44.5062   51.0000   39.1040 H   0  0  0  0  0  0  0  0  0  0  0  0
   43.7638   52.6660   38.4816 H   0  0  0  0  0  0  0  0  0  0  0  0
   41.3374   52.8858   38.5612 H   0  0  0  0  0  0  0  0  0  0  0  0
   39.3069   52.4692   39.7158 H   0  0  0  0  0  0  0  0  0  0  0  0
   39.0707   50.5084   41.0371 H   0  0  0  0  0  0  0  0  0  0  0  0
   40.8638   48.9589   41.1902 H   0  0  0  0  0  0  0  0  0  0  0  0
  1  2  2  0  0  0  0
  1  8  1  0  0  0  0
  2  3  1  0  0  0  0
  2 37  1  0  0  0  0
  3  4  2  0  0  0  0
  3  9  1  0  0  0  0
  4  5  1  0  0  0  0
  4 10  1  0  0  0  0
  5  6  2  0  0  0  0
  5 38  1  0  0  0  0
  6  1  1  0  0  0  0
  6  7  1  0  0  0  0
 10 39  1  0  0  0  0
 10 40  1  0  0  0  0
 11 10  1  0  0  0  0
 11 12  1  0  0  0  0
 11 13  1  0  0  0  0
 11 41  1  6  0  0  0
 12 14  1  0  0  0  0
 12 42  1  0  0  0  0
 12 43  1  0  0  0  0
 13 44  1  0  0  0  0
 13 45  1  0  0  0  0
 13 46  1  0  0  0  0
 14 15  1  0  0  0  0
 14 28  2  0  0  0  0
 15 16  1  0  0  0  0
 15 18  1  0  0  0  0
 16 17  1  0  0  0  0
 16 47  1  0  0  0  0
 16 48  1  0  0  0  0
 17 21  1  0  0  0  0
 17 49  1  0  0  0  0
 17 50  1  0  0  0  0
 18 29  1  0  0  0  0
 18 51  1  1  0  0  0
 19 20  2  0  0  0  0
 20 18  1  0  0  0  0
 20 21  1  0  0  0  0
 21 22  1  0  0  0  0
 22 23  2  0  0  0  0
 22 24  1  0  0  0  0
 23 19  1  0  0  0  0
 24 25  1  0  0  0  0
 24 26  1  0  0  0  0
 24 27  1  0  0  0  0
 29 30  1  0  0  0  0
 29 52  1  0  0  0  0
 29 53  1  0  0  0  0
 30 31  2  0  0  0  0
 31 32  1  0  0  0  0
 31 54  1  0  0  0  0
 32 33  2  0  0  0  0
 32 55  1  0  0  0  0
 33 34  1  0  0  0  0
 33 56  1  0  0  0  0
 34 35  2  0  0  0  0
 34 57  1  0  0  0  0
 35 30  1  0  0  0  0
 35 36  1  0  0  0  0
M  CHG  1  13   1
M  END
>  <Mean(IC50 fixed2)>
65.73

>  <First(BindingDB Ligand Name)>
CHEMBL540888

>  <Concatenate(Target Name Assigned by Curator or DataSource)>
Dipeptidyl Peptidase IV (DPP-IV), Dipeptidyl Peptidase IV (DPP-IV)

>  <First(Target Source Organism According to Curator or DataSource)>
Homo sapiens

>  <First(Curation/DataSource)>
ChEMBL

>  <First(Article DOI)>
10.1021/jm070330v

>  <Mean(PMID)>
18201067

>  <First(Authors)>
Kim, D; Kowalchick, JE; Brockunier, LL; Parmee, ER; Eiermann, GJ; Fisher, MH; He, H; Leiting, B; Lyons, K; Scapin, G; Patel, SB; Petrov, A; Pryor, KD; Roy, RS; Wu, JK; Zhang, X; Wyvratt, MJ; Zhang, BB; Zhu, L; Thornberry, NA; Weber, AE

>  <First(Institution)>
Merck Research Laboratories<span class=m1fontSize>Curated by</span> <a href=http://www.ebi.ac.uk/chembl/>ChEMBL</a>

>  <First(Link to Ligand in BindingDB)>
http://www.bindingdb.org/bind/chemsearch/marvin/MolStructure.jsp?monomerid=50232501

>  <First(Link to Ligand-Target Pair in BindingDB)>
http://www.bindingdb.org/jsp/dbsearch/PrimarySearch_ki.jsp?energyterm=kJ/mole&tag=r21&monomerid=50232501&enzyme=Dipeptidyl+Peptidase+IV+%28DPP-IV%29&column=ki&startPg=0&Increment=50&submit=Search

>  <Mean(PubChem CID)>
44445059

>  <Mean(PubChem SID)>
104055513

>  <First(ZINC ID of Ligand)>
ZINC28967962

>  <Concatenate*(UniProt (SwissProt) Entry Name of Target Chain)>
DPP4_HUMAN, DPP4_HUMAN

>  <Mean(Number of Protein Chains in Target (>1 implies a multichain complex))>
1

>  <Median(pIC50)>
9.337

>  <Journal>
JMedChem2008

>  <Activity Classes>
9.337

>  <Conformer_cresset>
1

>  <Similarity_cresset>
0.966

>  <Favorite_cresset>
false

>  <Activity (Median(pIC50))_cresset>
9.34

>  <LE (Median(pIC50))_cresset>
0.363

>  <LipE (Median(pIC50))_cresset>
4.3

>  <Tags_cresset>
training

>  <Confs_cresset>
2

>  <Conf#_cresset>
1

>  <Alns_cresset>
2

>  <MW_cresset>
516.4

>  <#Atoms_cresset>
36

>  <SlogP_cresset>
5

>  <TPSA_cresset>
78.7

>  <Flexibility_cresset>
6.9

>  <#RB_cresset>
8

>  <Rof5_cresset>
2

>  <Filename_cresset>
bindingdb_similar_1x70_processed.sdf

>  <Notes_cresset>
45b

>  <Selected Alignment_cresset>
true

>  <Alignment Cluster Centre_cresset>
true

>  <_cresset_fieldpoints>
-5      41.001678      48.431274      37.527809     -9.7646
-5      47.822914      49.889412      37.217003    -12.5047
-5      32.809052      45.944191      35.681145     -2.5847
-5      42.232265      52.118919      42.381660     -2.1501
-6      35.633034      50.619259      33.293690      5.6286
-6      42.044060      53.424759      32.679161     11.8990
-6      41.138931      54.649265      36.742027     10.9988
-7      37.084728      49.373863      32.908440     -2.4265
-7      40.340763      48.201679      37.739487     -3.3968
-7      35.373470      50.369045      33.232670     -2.5500
-7      40.935631      54.749371      37.151512     -2.3934
-7      39.220058      54.247833      37.500546     -2.6583
-7      39.942947      54.371441      33.516518     -1.8923
-7      40.161297      50.282001      32.111748     -1.5223
-7      41.944824      53.271709      32.247292     -1.6945
-7      44.537670      54.110420      31.664221     -1.5822
-7      45.704113      54.295967      37.200558     -2.6896
-7      42.574837      54.986080      38.357681     -2.0082
-7      42.639511      52.466923      42.295311     -1.9756
-7      47.263592      48.718594      35.651436     -1.5350
-7      49.068409      54.140533      31.148455     -1.1111
-7      43.115776      49.608788      34.044910     -2.8224
-7      37.005161      49.507820      39.555271     -2.8753
-7      45.980782      48.841286      38.496754     -1.9815
-8      35.718750      49.793186      36.382454      7.2675
-8      41.113697      50.919575      39.874153      7.2222
-8      39.516693      51.325096      35.949581      4.9924
-8      43.467884      53.284359      34.725819      3.8105
-8      47.374901      52.601486      33.833046      5.6589
-8      42.931767      50.548206      39.297394      5.6467

$$$$
