@<TRIPOS>MOLECULE
bindingdb_similar_1x70_processed:10
 44 46 0 0 0
SMALL
GASTEIGER

@<TRIPOS>ATOM
      1 C          34.4829   49.2051   36.3844 C.ar    1  LIG1       -0.0264
      2 C          35.5993   48.4475   36.1039 C.ar    1  LIG1        0.1237
      3 C          36.8482   49.0310   36.1140 C.ar    1  LIG1       -0.0231
      4 C          36.9842   50.3715   36.3994 C.ar    1  LIG1       -0.0393
      5 C          35.8646   51.1242   36.6788 C.ar    1  LIG1       -0.0582
      6 C          34.6168   50.5432   36.6724 C.ar    1  LIG1       -0.0588
      7 C          38.3556   51.0292   36.4084 C.3     1  LIG1        0.0160
      8 C          39.0580   51.1149   35.0346 C.3     1  LIG1       -0.0119
      9 N          38.2240   51.9184   34.0759 N.4     1  LIG1        0.2213
     10 C          40.4378   51.7936   35.1655 C.3     1  LIG1        0.0673
     11 C          41.4455   50.9925   35.9688 C.2     1  LIG1        0.2214
     12 O          41.1659   49.8872   36.4138 O.2     1  LIG1       -0.2754
     13 N          42.6431   51.5946   36.1466 N.am    1  LIG1       -0.2923
     14 C          43.0272   52.8977   35.5447 C.3     1  LIG1        0.0332
     15 C          44.2532   52.7192   34.6212 C.3     1  LIG1        0.0422
     16 C          43.6534   50.9350   37.0009 C.3     1  LIG1        0.0746
     17 C          45.0251   51.1239   36.3854 C.ar    1  LIG1        0.1512
     18 N          45.2791   51.9358   35.3257 N.ar    1  LIG1       -0.3048
     19 C          46.6128   51.8566   35.0461 C.ar    1  LIG1        0.2376
     20 N          47.1316   51.0374   35.9107 N.ar    1  LIG1       -0.1250
     21 N          46.1459   50.5818   36.7451 N.ar    1  LIG1       -0.1324
     22 C          47.3659   52.5731   33.9374 C.3     1  LIG1        0.4524
     23 F          47.2513   53.9549   34.0452 F       1  LIG1       -0.1632
     24 F          46.8877   52.2092   32.6831 F       1  LIG1       -0.1632
     25 F          48.7233   52.2706   33.9642 F       1  LIG1       -0.1632
     26 F          35.4700   47.1445   35.8197 F       1  LIG1       -0.2055
     27 H          39.2022   50.0081   34.5935 H       1  LIG1        0.0858
     28 H          33.5765   48.7826   36.3781 H       1  LIG1        0.0646
     29 H          37.6574   48.4799   35.9107 H       1  LIG1        0.0649
     30 H          35.9590   52.0976   36.8873 H       1  LIG1        0.0620
     31 H          33.8077   51.0942   36.8765 H       1  LIG1        0.0619
     32 H          38.2550   52.1413   36.8492 H       1  LIG1        0.0368
     33 H          39.0463   50.3987   37.1592 H       1  LIG1        0.0368
     34 H          37.3992   51.5535   33.9563 H       1  LIG1        0.1997
     35 H          38.6036   51.9773   33.2508 H       1  LIG1        0.1997
     36 H          38.0960   52.7690   34.3723 H       1  LIG1        0.1997
     37 H          40.2535   52.8589   35.6864 H       1  LIG1        0.0414
     38 H          40.8685   51.9325   34.0539 H       1  LIG1        0.0414
     39 H          42.1905   53.4816   34.9183 H       1  LIG1        0.0482
     40 H          43.3611   53.6131   36.4485 H       1  LIG1        0.0482
     41 H          43.9204   52.1272   33.6318 H       1  LIG1        0.0508
     42 H          44.6821   53.7976   34.3175 H       1  LIG1        0.0508
     43 H          43.4236   49.7605   37.0872 H       1  LIG1        0.0545
     44 H          43.6345   51.4271   38.0952 H       1  LIG1        0.0545
@<TRIPOS>BOND
     1     1     2   ar
     2     1    28    1
     3     2     3   ar
     4     2    26    1
     5     3     4   ar
     6     3    29    1
     7     4     5   ar
     8     4     7    1
     9     5     6   ar
    10     5    30    1
    11     6     1   ar
    12     6    31    1
    13     7    32    1
    14     7    33    1
    15     8     7    1
    16     8     9    1
    17     8    10    1
    18     8    27    1
    19     9    34    1
    20     9    35    1
    21     9    36    1
    22    10    11    1
    23    10    37    1
    24    10    38    1
    25    11    12    2
    26    11    13   am
    27    13    14    1
    28    13    16    1
    29    14    15    1
    30    14    39    1
    31    14    40    1
    32    15    18    1
    33    15    41    1
    34    15    42    1
    35    16    43    1
    36    16    44    1
    37    17    16    1
    38    17    18   ar
    39    18    19   ar
    40    19    20   ar
    41    19    22    1
    42    20    21   ar
    43    21    17   ar
    44    22    23    1
    45    22    24    1
    46    22    25    1
