bindingdb_similar_1x70_processed:46
 OpenBabel04261912203D

 47 49  0  0  1  0  0  0  0  0999 V2000
   34.4523   49.2288   36.3629 C   0  0  0  0  0  0  0  0  0  0  0  0
   34.5866   50.5654   36.6623 C   0  0  0  0  0  0  0  0  0  0  0  0
   35.8361   51.1464   36.6999 C   0  0  0  0  0  0  0  0  0  0  0  0
   36.9618   50.3895   36.4378 C   0  0  0  0  0  0  0  0  0  0  0  0
   36.8227   49.0497   36.1461 C   0  0  0  0  0  0  0  0  0  0  0  0
   35.5753   48.4676   36.1049 C   0  0  0  0  0  0  0  0  0  0  0  0
   35.4574   47.1647   35.8100 F   0  0  0  0  0  0  0  0  0  0  0  0
   33.2322   48.6736   36.3213 F   0  0  0  0  0  0  0  0  0  0  0  0
   35.9418   52.4519   36.9902 F   0  0  0  0  0  0  0  0  0  0  0  0
   38.3561   51.0037   36.4490 C   0  0  0  0  0  0  0  0  0  0  0  0
   39.0338   51.0861   35.0625 C   0  0  2  0  0  0  0  0  0  0  0  0
   40.4201   51.7564   35.1569 C   0  0  0  0  0  0  0  0  0  0  0  0
   38.1866   51.8866   34.1118 N   0  3  0  0  0  0  0  0  0  0  0  0
   41.4427   50.9732   35.9595 C   0  0  0  0  0  0  0  0  0  0  0  0
   42.6480   51.5730   36.0988 N   0  0  0  0  0  0  0  0  0  0  0  0
   43.0044   52.8774   35.4701 C   0  0  2  0  0  0  0  0  0  0  0  0
   44.2947   52.7458   34.6249 C   0  0  0  0  0  0  0  0  0  0  0  0
   43.6634   50.9002   36.9420 C   0  0  0  0  0  0  0  0  0  0  0  0
   46.1597   50.5540   36.7136 N   0  0  0  0  0  0  0  0  0  0  0  0
   45.0433   51.1042   36.3524 C   0  0  0  0  0  0  0  0  0  0  0  0
   45.3112   51.9413   35.3177 N   0  0  0  0  0  0  0  0  0  0  0  0
   46.6468   51.8662   35.0494 C   0  0  0  0  0  0  0  0  0  0  0  0
   47.1559   51.0281   35.9016 N   0  0  0  0  0  0  0  0  0  0  0  0
   47.4086   52.6011   33.9594 C   0  0  0  0  0  0  0  0  0  0  0  0
   48.7678   52.3102   34.0034 F   0  0  0  0  0  0  0  0  0  0  0  0
   47.2787   53.9808   34.0758 F   0  0  0  0  0  0  0  0  0  0  0  0
   46.9504   52.2417   32.6962 F   0  0  0  0  0  0  0  0  0  0  0  0
   41.1660   49.8802   36.4360 O   0  0  0  0  0  0  0  0  0  0  0  0
   43.1867   53.9625   36.5490 C   0  0  0  0  0  0  0  0  0  0  0  0
   39.1646   49.9767   34.6241 H   0  0  0  0  0  0  0  0  0  0  0  0
   42.1966   53.3260   34.7098 H   0  0  0  0  0  0  0  0  0  0  0  0
   33.7747   51.1178   36.8508 H   0  0  0  0  0  0  0  0  0  0  0  0
   37.6341   48.4967   35.9566 H   0  0  0  0  0  0  0  0  0  0  0  0
   38.3308   52.1094   36.9153 H   0  0  0  0  0  0  0  0  0  0  0  0
   39.0333   50.3243   37.1687 H   0  0  0  0  0  0  0  0  0  0  0  0
   40.2577   52.8408   35.6451 H   0  0  0  0  0  0  0  0  0  0  0  0
   40.8155   51.8441   34.0272 H   0  0  0  0  0  0  0  0  0  0  0  0
   37.3570   51.5270   34.0125 H   0  0  0  0  0  0  0  0  0  0  0  0
   38.5485   51.9326   33.2781 H   0  0  0  0  0  0  0  0  0  0  0  0
   38.0707   52.7420   34.4000 H   0  0  0  0  0  0  0  0  0  0  0  0
   44.0216   52.1889   33.5974 H   0  0  0  0  0  0  0  0  0  0  0  0
   44.7275   53.8350   34.3703 H   0  0  0  0  0  0  0  0  0  0  0  0
   43.4412   49.7225   36.9988 H   0  0  0  0  0  0  0  0  0  0  0  0
   43.6313   51.3638   38.0484 H   0  0  0  0  0  0  0  0  0  0  0  0
   44.0950   53.6572   37.2714 H   0  0  0  0  0  0  0  0  0  0  0  0
   42.1796   54.0577   37.1943 H   0  0  0  0  0  0  0  0  0  0  0  0
   43.4250   55.0191   36.0324 H   0  0  0  0  0  0  0  0  0  0  0  0
  1  2  2  0  0  0  0
  1  8  1  0  0  0  0
  2  3  1  0  0  0  0
  2 32  1  0  0  0  0
  3  4  2  0  0  0  0
  3  9  1  0  0  0  0
  4  5  1  0  0  0  0
  4 10  1  0  0  0  0
  5  6  2  0  0  0  0
  5 33  1  0  0  0  0
  6  1  1  0  0  0  0
  6  7  1  0  0  0  0
 10 34  1  0  0  0  0
 10 35  1  0  0  0  0
 11 10  1  0  0  0  0
 11 12  1  0  0  0  0
 11 13  1  0  0  0  0
 11 30  1  6  0  0  0
 12 14  1  0  0  0  0
 12 36  1  0  0  0  0
 12 37  1  0  0  0  0
 13 38  1  0  0  0  0
 13 39  1  0  0  0  0
 13 40  1  0  0  0  0
 14 15  1  0  0  0  0
 14 28  2  0  0  0  0
 15 16  1  0  0  0  0
 15 18  1  0  0  0  0
 16 17  1  0  0  0  0
 16 29  1  0  0  0  0
 16 31  1  6  0  0  0
 17 21  1  0  0  0  0
 17 41  1  0  0  0  0
 17 42  1  0  0  0  0
 18 43  1  0  0  0  0
 18 44  1  0  0  0  0
 19 20  2  0  0  0  0
 20 18  1  0  0  0  0
 20 21  1  0  0  0  0
 21 22  1  0  0  0  0
 22 23  2  0  0  0  0
 22 24  1  0  0  0  0
 23 19  1  0  0  0  0
 24 25  1  0  0  0  0
 24 26  1  0  0  0  0
 24 27  1  0  0  0  0
 29 45  1  0  0  0  0
 29 46  1  0  0  0  0
 29 47  1  0  0  0  0
M  CHG  1  13   1
M  END
>  <Mean(IC50 fixed2)>
66.5

>  <First(BindingDB Ligand Name)>
CHEMBL557990

>  <Concatenate(Target Name Assigned by Curator or DataSource)>
Dipeptidyl Peptidase IV (DPP-IV), Dipeptidyl Peptidase IV (DPP-IV)

>  <First(Target Source Organism According to Curator or DataSource)>
Homo sapiens

>  <First(Curation/DataSource)>
ChEMBL

>  <First(Article DOI)>
10.1021/jm070330v

>  <Mean(PMID)>
18201067

>  <First(Authors)>
Kim, D; Kowalchick, JE; Brockunier, LL; Parmee, ER; Eiermann, GJ; Fisher, MH; He, H; Leiting, B; Lyons, K; Scapin, G; Patel, SB; Petrov, A; Pryor, KD; Roy, RS; Wu, JK; Zhang, X; Wyvratt, MJ; Zhang, BB; Zhu, L; Thornberry, NA; Weber, AE

>  <First(Institution)>
Merck Research Laboratories<span class=m1fontSize>Curated by</span> <a href=http://www.ebi.ac.uk/chembl/>ChEMBL</a>

>  <First(Link to Ligand in BindingDB)>
http://www.bindingdb.org/bind/chemsearch/marvin/MolStructure.jsp?monomerid=50232500

>  <First(Link to Ligand-Target Pair in BindingDB)>
http://www.bindingdb.org/jsp/dbsearch/PrimarySearch_ki.jsp?energyterm=kJ/mole&tag=r21&monomerid=50232500&enzyme=Dipeptidyl+Peptidase+IV+%28DPP-IV%29&column=ki&startPg=0&Increment=50&submit=Search

>  <Mean(PubChem CID)>
44445025.5

>  <Mean(PubChem SID)>
104055522.5

>  <First(ZINC ID of Ligand)>
ZINC28967321

>  <Concatenate*(UniProt (SwissProt) Entry Name of Target Chain)>
DPP4_HUMAN, DPP4_HUMAN

>  <Mean(Number of Protein Chains in Target (>1 implies a multichain complex))>
1

>  <Median(pIC50)>
7.04

>  <Journal>
JMedChem2008

>  <Activity Classes>
7.04

>  <Conformer_cresset>
2

>  <Similarity_cresset>
0.825

>  <Favorite_cresset>
false

>  <Activity (Median(pIC50))_cresset>
7.04

>  <LE (Median(pIC50))_cresset>
0.340

>  <LipE (Median(pIC50))_cresset>
3.8

>  <Tags_cresset>
training

>  <Confs_cresset>
2

>  <Conf#_cresset>
2

>  <Alns_cresset>
2

>  <MW_cresset>
422.4

>  <#Atoms_cresset>
29

>  <SlogP_cresset>
3.2

>  <TPSA_cresset>
78.7

>  <Flexibility_cresset>
4.9

>  <#RB_cresset>
6

>  <Rof5_cresset>
0

>  <Filename_cresset>
bindingdb_similar_1x70_processed.sdf

>  <Notes_cresset>
23 (S) manually fixed
inverted activity

>  <Selected Alignment_cresset>
true

>  <Alignment Cluster Centre_cresset>
true

>  <_cresset_fieldpoints>
-5      47.803734      49.745987      37.101494    -12.2553
-5      40.669743      48.222042      36.963863     -6.9512
-5      32.916031      45.845970      35.842537     -2.6497
-6      42.080360      53.309910      32.554092     11.4065
-6      42.873386      53.221085      39.439438      4.6154
-6      40.624557      54.147068      33.431732     11.1017
-6      35.625893      50.515400      33.282242      5.5495
-7      35.361115      50.269299      33.234764     -2.5563
-7      43.021729      49.792252      33.823521     -2.7874
-7      40.788738      52.223007      38.443092     -3.0024
-7      37.059311      49.301086      32.942024     -2.4393
-7      38.439075      54.532944      36.159786     -2.1327
-7      36.027431      49.129021      39.508484     -2.1446
-7      40.491398      55.248844      35.000488     -1.8239
-7      39.991150      54.364498      33.461208     -1.9511
-7      41.990780      53.120747      32.154549     -1.7267
-7      44.654053      54.434326      31.856165     -1.6371
-7      42.946327      55.536053      33.400570     -1.6293
-7      39.992783      47.942616      36.083557     -2.5378
-7      49.202866      54.333588      31.351151     -1.1108
-7      47.273731      48.680008      35.365845     -1.4970
-7      46.495213      54.322304      37.190907     -2.2551
-8      35.705006      49.807865      36.400028      7.2635
-8      39.467335      51.370701      35.902554      4.9509
-8      43.590641      53.622562      35.450432      4.7574
-8      47.429897      52.649849      33.891815      5.6587
-8      44.164856      50.768223      37.279377      2.8256

$$$$
