@<TRIPOS>MOLECULE
bindingdb_similar_1x70_processed:57
 54 57 0 0 0
SMALL
GASTEIGER

@<TRIPOS>ATOM
      1 C          34.4780   49.2225   36.3267 C.ar    1  LIG1        0.1611
      2 C          34.6082   50.5559   36.6408 C.ar    1  LIG1        0.0119
      3 C          35.8563   51.1387   36.6896 C.ar    1  LIG1        0.1296
      4 C          36.9848   50.3873   36.4240 C.ar    1  LIG1       -0.0040
      5 C          36.8500   49.0506   36.1161 C.ar    1  LIG1       -0.0175
      6 C          35.6038   48.4668   36.0643 C.ar    1  LIG1        0.1588
      7 C          38.3760   51.0070   36.4549 C.3     1  LIG1        0.0187
      8 C          39.0662   51.1325   35.0768 C.3     1  LIG1       -0.0118
      9 C          40.4477   51.8078   35.2084 C.3     1  LIG1        0.0673
     10 N          38.2263   51.9536   34.1377 N.4     1  LIG1        0.2213
     11 C          41.4599   50.9893   35.9876 C.2     1  LIG1        0.2216
     12 N          42.6596   51.5847   36.1745 N.am    1  LIG1       -0.2894
     13 O          41.1816   49.8737   36.4068 O.2     1  LIG1       -0.2754
     14 C          43.0347   52.9036   35.5941 C.3     1  LIG1        0.0350
     15 C          44.2600   52.7636   34.6638 C.3     1  LIG1        0.0593
     16 C          43.6661   50.8804   37.0053 C.3     1  LIG1        0.0857
     17 C          45.0344   51.0984   36.3935 C.ar    1  LIG1        0.1487
     18 N          45.2541   51.9457   35.3663 N.ar    1  LIG1       -0.2454
     19 N          46.5757   51.8991   35.0697 N.ar    1  LIG1       -0.1453
     20 C          47.0984   51.0502   35.9101 C.ar    1  LIG1        0.2548
     21 N          46.1734   50.5349   36.7476 N.ar    1  LIG1       -0.2061
     22 F          35.9577   52.4408   36.9958 F       1  LIG1       -0.2051
     23 F          33.2593   48.6656   36.2756 F       1  LIG1       -0.2024
     24 F          35.4894   47.1669   35.7559 F       1  LIG1       -0.2025
     25 C          48.5704   50.6946   35.9468 C.3     1  LIG1        0.4540
     26 F          49.2877   51.6257   36.6886 F       1  LIG1       -0.1631
     27 F          48.7856   49.4457   36.5195 F       1  LIG1       -0.1631
     28 F          49.1153   50.6676   34.6682 F       1  LIG1       -0.1631
     29 C          43.6356   51.2919   38.4898 C.3     1  LIG1       -0.0243
     30 C          42.2977   50.8896   39.1371 C.3     1  LIG1       -0.0389
     31 C          41.9815   51.6591   40.4283 C.3     1  LIG1       -0.0499
     32 C          41.2255   51.9905   39.1312 C.3     1  LIG1       -0.0499
     33 H          39.2094   50.0362   34.6098 H       1  LIG1        0.0858
     34 H          43.4467   49.7020   36.9539 H       1  LIG1        0.0582
     35 H          33.7943   51.1043   36.8326 H       1  LIG1        0.0676
     36 H          37.6632   48.5011   35.9242 H       1  LIG1        0.0651
     37 H          39.0537   50.3126   37.1596 H       1  LIG1        0.0369
     38 H          38.3358   52.0955   36.9586 H       1  LIG1        0.0369
     39 H          40.2708   52.8645   35.7489 H       1  LIG1        0.0414
     40 H          40.8677   51.9650   34.0951 H       1  LIG1        0.0414
     41 H          37.3990   51.5940   34.0189 H       1  LIG1        0.1997
     42 H          38.5994   52.0212   33.3105 H       1  LIG1        0.1997
     43 H          38.1040   52.8016   34.4446 H       1  LIG1        0.1997
     44 H          42.1950   53.4919   34.9763 H       1  LIG1        0.0483
     45 H          43.3601   53.6136   36.5044 H       1  LIG1        0.0483
     46 H          43.9347   52.2101   33.6499 H       1  LIG1        0.0525
     47 H          44.7125   53.8454   34.4095 H       1  LIG1        0.0525
     48 H          44.5177   50.7137   39.0624 H       1  LIG1        0.0290
     49 H          43.8257   52.4723   38.5881 H       1  LIG1        0.0290
     50 H          41.9060   49.7559   39.1010 H       1  LIG1        0.0301
     51 H          42.7914   52.4729   40.7770 H       1  LIG1        0.0268
     52 H          41.3454   51.0576   41.2490 H       1  LIG1        0.0268
     53 H          40.0859   51.6155   39.1087 H       1  LIG1        0.0268
     54 H          41.5164   53.0418   38.6310 H       1  LIG1        0.0268
@<TRIPOS>BOND
     1     1     2   ar
     2     1    23    1
     3     2     3   ar
     4     2    35    1
     5     3     4   ar
     6     3    22    1
     7     4     5   ar
     8     4     7    1
     9     5     6   ar
    10     5    36    1
    11     6     1   ar
    12     6    24    1
    13     7    37    1
    14     7    38    1
    15     8     7    1
    16     8     9    1
    17     8    10    1
    18     8    33    1
    19     9    11    1
    20     9    39    1
    21     9    40    1
    22    10    41    1
    23    10    42    1
    24    10    43    1
    25    11    12   am
    26    11    13    2
    27    12    14    1
    28    12    16    1
    29    14    15    1
    30    14    44    1
    31    14    45    1
    32    15    18    1
    33    15    46    1
    34    15    47    1
    35    16    29    1
    36    16    34    1
    37    17    16    1
    38    17    18   ar
    39    18    19   ar
    40    19    20   ar
    41    20    21   ar
    42    20    25    1
    43    21    17   ar
    44    25    26    1
    45    25    27    1
    46    25    28    1
    47    29    30    1
    48    29    48    1
    49    29    49    1
    50    30    32    1
    51    30    50    1
    52    31    30    1
    53    31    51    1
    54    31    52    1
    55    32    31    1
    56    32    53    1
    57    32    54    1
