bindingdb_similar_1x70_processed:33
 OpenBabel04261912203D

 47 49  0  0  1  0  0  0  0  0999 V2000
   34.3986   49.5271   36.4265 C   0  0  0  0  0  0  0  0  0  0  0  0
   35.4645   48.6906   36.1781 C   0  0  0  0  0  0  0  0  0  0  0  0
   36.7446   49.1972   36.2054 C   0  0  0  0  0  0  0  0  0  0  0  0
   36.9648   50.5272   36.4886 C   0  0  0  0  0  0  0  0  0  0  0  0
   35.8941   51.3557   36.7395 C   0  0  0  0  0  0  0  0  0  0  0  0
   34.6120   50.8575   36.7057 C   0  0  0  0  0  0  0  0  0  0  0  0
   38.3786   51.0859   36.5087 C   0  0  0  0  0  0  0  0  0  0  0  0
   39.0499   51.1917   35.1204 C   0  0  1  0  0  0  0  0  0  0  0  0
   38.2106   52.0390   34.2015 N   0  3  0  0  0  0  0  0  0  0  0  0
   40.4466   51.8389   35.2252 C   0  0  0  0  0  0  0  0  0  0  0  0
   41.4603   51.0473   36.0302 C   0  0  0  0  0  0  0  0  0  0  0  0
   41.1862   49.9513   36.5025 O   0  0  0  0  0  0  0  0  0  0  0  0
   42.6600   51.6520   36.1816 N   0  0  0  0  0  0  0  0  0  0  0  0
   43.0530   52.9194   35.5131 C   0  0  0  0  0  0  0  0  0  0  0  0
   44.2610   52.6672   34.5828 C   0  0  0  0  0  0  0  0  0  0  0  0
   43.6687   51.0298   37.0649 C   0  0  0  0  0  0  0  0  0  0  0  0
   45.0366   51.1705   36.4302 C   0  0  0  0  0  0  0  0  0  0  0  0
   45.2861   51.9128   35.3199 N   0  0  0  0  0  0  0  0  0  0  0  0
   46.6152   51.8016   35.0312 C   0  0  0  0  0  0  0  0  0  0  0  0
   47.1375   51.0363   35.9420 N   0  0  0  0  0  0  0  0  0  0  0  0
   46.1568   50.6438   36.8139 N   0  0  0  0  0  0  0  0  0  0  0  0
   47.3570   52.4314   33.8645 C   0  0  0  0  0  0  0  0  0  0  0  0
   46.8837   51.9458   32.6501 F   0  0  0  0  0  0  0  0  0  0  0  0
   48.7191   52.1563   33.9174 F   0  0  0  0  0  0  0  0  0  0  0  0
   47.2165   53.8149   33.8462 F   0  0  0  0  0  0  0  0  0  0  0  0
   35.2530   47.2182   35.8725 C   0  0  0  0  0  0  0  0  0  0  0  0
   33.9594   46.7976   36.1645 F   0  0  0  0  0  0  0  0  0  0  0  0
   35.4948   46.9241   34.5345 F   0  0  0  0  0  0  0  0  0  0  0  0
   36.1165   46.4364   36.6322 F   0  0  0  0  0  0  0  0  0  0  0  0
   33.4663   49.1659   36.4042 H   0  0  0  0  0  0  0  0  0  0  0  0
   37.5205   48.5953   36.0169 H   0  0  0  0  0  0  0  0  0  0  0  0
   36.0486   52.3221   36.9451 H   0  0  0  0  0  0  0  0  0  0  0  0
   33.8362   51.4622   36.8840 H   0  0  0  0  0  0  0  0  0  0  0  0
   38.3756   52.1754   37.0125 H   0  0  0  0  0  0  0  0  0  0  0  0
   39.0338   50.3610   37.2042 H   0  0  0  0  0  0  0  0  0  0  0  0
   39.1563   50.0928   34.6502 H   0  0  0  0  0  0  0  0  0  0  0  0
   37.3804   51.6890   34.0812 H   0  0  0  0  0  0  0  0  0  0  0  0
   38.5779   52.1232   33.3742 H   0  0  0  0  0  0  0  0  0  0  0  0
   38.1004   52.8789   34.5317 H   0  0  0  0  0  0  0  0  0  0  0  0
   40.2877   52.9180   35.7262 H   0  0  0  0  0  0  0  0  0  0  0  0
   40.8602   51.9415   34.1031 H   0  0  0  0  0  0  0  0  0  0  0  0
   42.2179   53.4854   34.8681 H   0  0  0  0  0  0  0  0  0  0  0  0
   43.4129   53.6744   36.3737 H   0  0  0  0  0  0  0  0  0  0  0  0
   43.9050   52.0219   33.6358 H   0  0  0  0  0  0  0  0  0  0  0  0
   44.6995   53.7191   34.2084 H   0  0  0  0  0  0  0  0  0  0  0  0
   43.4280   49.8639   37.2184 H   0  0  0  0  0  0  0  0  0  0  0  0
   43.6638   51.5832   38.1302 H   0  0  0  0  0  0  0  0  0  0  0  0
  1  2  2  0  0  0  0
  1 30  1  0  0  0  0
  2  3  1  0  0  0  0
  2 26  1  0  0  0  0
  3  4  2  0  0  0  0
  3 31  1  0  0  0  0
  4  5  1  0  0  0  0
  4  7  1  0  0  0  0
  5  6  2  0  0  0  0
  5 32  1  0  0  0  0
  6  1  1  0  0  0  0
  6 33  1  0  0  0  0
  7 34  1  0  0  0  0
  7 35  1  0  0  0  0
  8  7  1  0  0  0  0
  8  9  1  0  0  0  0
  8 10  1  0  0  0  0
  8 36  1  6  0  0  0
  9 37  1  0  0  0  0
  9 38  1  0  0  0  0
  9 39  1  0  0  0  0
 10 11  1  0  0  0  0
 10 40  1  0  0  0  0
 10 41  1  0  0  0  0
 11 12  2  0  0  0  0
 11 13  1  0  0  0  0
 13 14  1  0  0  0  0
 13 16  1  0  0  0  0
 14 15  1  0  0  0  0
 14 42  1  0  0  0  0
 14 43  1  0  0  0  0
 15 18  1  0  0  0  0
 15 44  1  0  0  0  0
 15 45  1  0  0  0  0
 16 46  1  0  0  0  0
 16 47  1  0  0  0  0
 17 16  1  0  0  0  0
 17 18  1  0  0  0  0
 18 19  1  0  0  0  0
 19 20  2  0  0  0  0
 19 22  1  0  0  0  0
 20 21  1  0  0  0  0
 21 17  2  0  0  0  0
 22 23  1  0  0  0  0
 22 24  1  0  0  0  0
 22 25  1  0  0  0  0
 26 27  1  0  0  0  0
 26 28  1  0  0  0  0
 26 29  1  0  0  0  0
M  CHG  1   9   1
M  END
>  <Mean(IC50 fixed2)>
366

>  <First(BindingDB Ligand Name)>
CHEMBL243227

>  <Concatenate(Target Name Assigned by Curator or DataSource)>
Dipeptidyl Peptidase IV (DPP-IV)

>  <First(Target Source Organism According to Curator or DataSource)>
Homo sapiens

>  <First(Curation/DataSource)>
ChEMBL

>  <First(Article DOI)>
10.1016/j.bmcl.2007.03.098

>  <Mean(PMID)>
17434732

>  <First(Authors)>
Kim, D; Kowalchick, JE; Edmondson, SD; Mastracchio, A; Xu, J; Eiermann, GJ; Leiting, B; Wu, JK; Pryor, KD; Patel, RA; He, H; Lyons, KA; Thornberry, NA; Weber, AE

>  <First(Institution)>
Merck Research Laboratories<span class=m1fontSize>Curated by</span> <a href=http://www.ebi.ac.uk/chembl/>ChEMBL</a>

>  <First(Link to Ligand in BindingDB)>
http://www.bindingdb.org/bind/chemsearch/marvin/MolStructure.jsp?monomerid=50210659

>  <First(Link to Ligand-Target Pair in BindingDB)>
http://www.bindingdb.org/jsp/dbsearch/PrimarySearch_ki.jsp?energyterm=kJ/mole&tag=r21&monomerid=50210659&enzyme=Dipeptidyl+Peptidase+IV+%28DPP-IV%29&column=ki&startPg=0&Increment=50&submit=Search

>  <Mean(PubChem CID)>
44431191

>  <Mean(PubChem SID)>
104087146

>  <First(ZINC ID of Ligand)>
ZINC28820781

>  <Concatenate*(UniProt (SwissProt) Entry Name of Target Chain)>
DPP4_HUMAN

>  <Mean(Number of Protein Chains in Target (>1 implies a multichain complex))>
1

>  <Median(pIC50)>
6.43651891460559

>  <Journal>
BiorgMedChemLett2007

>  <Activity Classes>
6.43651891460559

>  <Conformer_cresset>
1

>  <Similarity_cresset>
0.818

>  <Favorite_cresset>
false

>  <Activity (Median(pIC50))_cresset>
6.44

>  <LE (Median(pIC50))_cresset>
0.311

>  <LipE (Median(pIC50))_cresset>
3.8

>  <Tags_cresset>
test

>  <Confs_cresset>
4

>  <Conf#_cresset>
1

>  <Alns_cresset>
4

>  <MW_cresset>
422.4

>  <#Atoms_cresset>
29

>  <SlogP_cresset>
2.6

>  <TPSA_cresset>
78.7

>  <Flexibility_cresset>
4.9

>  <#RB_cresset>
7

>  <Rof5_cresset>
0

>  <Filename_cresset>
bindingdb_similar_1x70_processed.sdf

>  <Notes_cresset>
31

>  <Selected Alignment_cresset>
true

>  <Alignment Cluster Centre_cresset>
true

>  <_cresset_fieldpoints>
-5      36.236012      49.000767      39.246220     -2.9931
-5      40.392296      48.354488      36.748837     -7.9139
-5      47.801163      49.840206      37.217319    -12.3473
-5      34.493526      44.306732      38.000565     -1.4408
-6      31.576273      51.071739      36.709549      4.1320
-6      42.063061      53.441135      32.681473     11.6451
-7      35.959438      48.760925      39.454823     -2.2078
-7      38.826794      47.543007      34.310741     -2.1663
-7      37.407547      54.403404      36.359901     -1.9827
-7      35.564140      53.415257      34.255596     -1.8322
-7      40.940491      52.672459      38.360229     -2.5940
-7      37.055405      49.462990      33.002739     -2.7106
-7      41.946983      53.308762      32.256271     -1.6913
-7      40.010998      54.425613      33.466846     -1.8624
-7      40.105545      50.312145      32.165630     -1.5233
-7      39.885765      48.031349      36.127079     -2.7327
-7      45.862080      54.485191      36.849621     -2.3050
-7      44.568829      54.009163      31.615948     -1.5814
-7      43.037548      49.613052      34.072380     -2.6999
-7      47.978184      51.968891      37.999481     -1.4875
-7      47.220222      48.649155      35.594841     -1.4942
-7      49.096710      53.914845      31.071964     -1.1106
-7      34.815098      43.703270      35.190094     -1.1268
-7      35.700085      50.092152      33.158165     -2.6775
-8      35.682400      50.017754      36.452343      7.2375
-8      35.296135      47.427326      35.918446      6.2459
-8      39.495739      51.444916      35.963104      4.9384
-8      43.496521      53.279926      34.703133      3.7891
-8      47.375763      52.470169      33.794628      5.6560
-8      44.176876      50.870953      37.395302      2.7938
-8      43.722458      52.081680      36.173000      2.6709

$$$$
