@<TRIPOS>MOLECULE
bindingdb_similar_1x70_processed:20
 44 46 0 0 0
SMALL
GASTEIGER

@<TRIPOS>ATOM
      1 C          35.5402   48.4764   36.0200 C.ar    1  LIG1        0.1238
      2 C          34.4466   49.2623   36.3128 C.ar    1  LIG1       -0.0237
      3 C          34.6244   50.5793   36.6658 C.ar    1  LIG1       -0.0235
      4 C          35.8927   51.1164   36.7227 C.ar    1  LIG1        0.1269
      5 C          36.9922   50.3335   36.4278 C.ar    1  LIG1       -0.0042
      6 C          36.8078   49.0132   36.0817 C.ar    1  LIG1       -0.0204
      7 C          38.4039   50.9069   36.4676 C.3     1  LIG1        0.0187
      8 C          39.0767   51.0740   35.0853 C.3     1  LIG1       -0.0118
      9 C          40.4568   51.7542   35.2042 C.3     1  LIG1        0.0673
     10 C          41.4844   50.9701   35.9960 C.2     1  LIG1        0.2214
     11 N          38.2195   51.9274   34.1950 N.4     1  LIG1        0.2213
     12 O          41.2350   49.8578   36.4403 O.2     1  LIG1       -0.2754
     13 C          43.6807   50.9784   37.0449 C.3     1  LIG1        0.0746
     14 C          43.0256   52.8936   35.5298 C.3     1  LIG1        0.0332
     15 C          44.2441   52.6925   34.6029 C.3     1  LIG1        0.0422
     16 N          42.6658   51.6012   36.1693 N.am    1  LIG1       -0.2923
     17 C          45.0467   51.1724   36.4217 C.ar    1  LIG1        0.1512
     18 C          46.6139   51.8781   35.0454 C.ar    1  LIG1        0.2376
     19 N          45.2818   51.9479   35.3309 N.ar    1  LIG1       -0.3048
     20 N          46.1781   50.6648   36.7971 N.ar    1  LIG1       -0.1324
     21 N          47.1516   51.1033   35.9388 N.ar    1  LIG1       -0.1250
     22 C          47.3430   52.5559   33.8973 C.3     1  LIG1        0.4524
     23 F          46.8874   52.0884   32.6689 F       1  LIG1       -0.1632
     24 F          47.1662   53.9353   33.9113 F       1  LIG1       -0.1632
     25 F          48.7121   52.3167   33.9475 F       1  LIG1       -0.1632
     26 F          35.3763   47.1915   35.6726 F       1  LIG1       -0.2055
     27 F          36.0438   52.4046   37.0650 F       1  LIG1       -0.2052
     28 H          33.5253   48.8760   36.2686 H       1  LIG1        0.0647
     29 H          33.8316   51.1499   36.8802 H       1  LIG1        0.0647
     30 H          37.5995   48.4409   35.8683 H       1  LIG1        0.0650
     31 H          38.4093   51.9731   37.0187 H       1  LIG1        0.0369
     32 H          39.0738   50.1603   37.1246 H       1  LIG1        0.0369
     33 H          39.2066   49.9953   34.5743 H       1  LIG1        0.0858
     34 H          40.2724   52.8197   35.7253 H       1  LIG1        0.0414
     35 H          40.8683   51.8925   34.0851 H       1  LIG1        0.0414
     36 H          37.3952   51.5615   34.0813 H       1  LIG1        0.1997
     37 H          38.5821   52.0257   33.3668 H       1  LIG1        0.1997
     38 H          38.1006   52.7589   34.5447 H       1  LIG1        0.1997
     39 H          43.4688   49.8031   37.1596 H       1  LIG1        0.0545
     40 H          43.6510   51.4930   38.1281 H       1  LIG1        0.0545
     41 H          42.1819   53.4478   34.8860 H       1  LIG1        0.0482
     42 H          43.3580   53.6453   36.4035 H       1  LIG1        0.0482
     43 H          43.9123   52.0659   33.6345 H       1  LIG1        0.0508
     44 H          44.6602   53.7644   34.2624 H       1  LIG1        0.0508
@<TRIPOS>BOND
     1     1     2   ar
     2     1     6   ar
     3     1    26    1
     4     2     3   ar
     5     2    28    1
     6     3     4   ar
     7     3    29    1
     8     4     5   ar
     9     4    27    1
    10     5     6   ar
    11     5     7    1
    12     6    30    1
    13     7    31    1
    14     7    32    1
    15     8     7    1
    16     8     9    1
    17     8    11    1
    18     8    33    1
    19     9    10    1
    20     9    34    1
    21     9    35    1
    22    10    12    2
    23    10    16   am
    24    11    36    1
    25    11    37    1
    26    11    38    1
    27    13    16    1
    28    13    17    1
    29    13    39    1
    30    13    40    1
    31    14    15    1
    32    14    41    1
    33    14    42    1
    34    15    19    1
    35    15    43    1
    36    15    44    1
    37    16    14    1
    38    18    21   ar
    39    18    22    1
    40    19    17   ar
    41    19    18   ar
    42    20    17   ar
    43    20    21   ar
    44    22    23    1
    45    22    24    1
    46    22    25    1
