@<TRIPOS>MOLECULE
bindingdb_similar_1x70_processed:28
 44 46 0 0 0
SMALL
GASTEIGER

@<TRIPOS>ATOM
      1 C          34.4502   49.2519   36.3560 C.ar    1  LIG1       -0.0420
      2 C          34.6241   50.5987   36.5786 C.ar    1  LIG1       -0.0417
      3 C          35.8924   51.1363   36.6010 C.ar    1  LIG1        0.0444
      4 C          36.9921   50.3262   36.4068 C.ar    1  LIG1       -0.0224
      5 C          36.8129   48.9788   36.1833 C.ar    1  LIG1       -0.0386
      6 C          35.5453   48.4409   36.1554 C.ar    1  LIG1        0.0413
      7 C          38.3919   50.9244   36.4396 C.3     1  LIG1        0.0173
      8 C          39.0697   51.0971   35.0616 C.3     1  LIG1       -0.0119
      9 N          38.2151   51.9664   34.1808 N.4     1  LIG1        0.2213
     10 C          40.4530   51.7663   35.2070 C.3     1  LIG1        0.0673
     11 C          41.4775   50.9669   35.9918 C.2     1  LIG1        0.2214
     12 O          41.2210   49.8502   36.4219 O.2     1  LIG1       -0.2754
     13 N          42.6637   51.5897   36.1758 N.am    1  LIG1       -0.2923
     14 C          43.0319   52.8940   35.5665 C.3     1  LIG1        0.0332
     15 C          44.2437   52.7069   34.6262 C.3     1  LIG1        0.0422
     16 C          43.6842   50.9525   37.0352 C.3     1  LIG1        0.0746
     17 C          45.0503   51.1498   36.4092 C.ar    1  LIG1        0.1512
     18 N          45.2844   51.9441   35.3319 N.ar    1  LIG1       -0.3048
     19 C          46.6158   51.8755   35.0408 C.ar    1  LIG1        0.2376
     20 N          47.1543   51.0841   35.9192 N.ar    1  LIG1       -0.1250
     21 N          46.1823   50.6330   36.7722 N.ar    1  LIG1       -0.1324
     22 C          47.3453   52.5701   33.9034 C.3     1  LIG1        0.4524
     23 F          46.8846   52.1263   32.6681 F       1  LIG1       -0.1632
     24 F          48.7129   52.3226   33.9470 F       1  LIG1       -0.1632
     25 F          47.1755   53.9499   33.9432 F       1  LIG1       -0.1632
     26 CL         36.1036   52.8404   36.8826 Cl      1  LIG1       -0.0833
     27 CL         35.3291   46.7422   35.8514 Cl      1  LIG1       -0.0835
     28 H          33.5290   48.8642   36.3357 H       1  LIG1        0.0633
     29 H          33.8291   51.1873   36.7224 H       1  LIG1        0.0633
     30 H          37.6075   48.3887   36.0385 H       1  LIG1        0.0635
     31 H          38.3454   51.9985   36.9719 H       1  LIG1        0.0369
     32 H          39.0775   50.2143   37.1202 H       1  LIG1        0.0369
     33 H          39.2018   50.0243   34.5422 H       1  LIG1        0.0858
     34 H          37.3906   51.6058   34.0487 H       1  LIG1        0.1997
     35 H          38.5791   52.0911   33.3568 H       1  LIG1        0.1997
     36 H          38.0899   52.7896   34.5463 H       1  LIG1        0.1997
     37 H          40.2677   52.8204   35.7508 H       1  LIG1        0.0414
     38 H          40.8745   51.9298   34.0948 H       1  LIG1        0.0414
     39 H          42.1859   53.4733   34.9484 H       1  LIG1        0.0482
     40 H          43.3785   53.6153   36.4607 H       1  LIG1        0.0482
     41 H          43.9009   52.0943   33.6529 H       1  LIG1        0.0508
     42 H          44.6591   53.7829   34.2970 H       1  LIG1        0.0508
     43 H          43.4693   49.7770   37.1412 H       1  LIG1        0.0545
     44 H          43.6666   51.4616   38.1223 H       1  LIG1        0.0545
@<TRIPOS>BOND
     1     1     2   ar
     2     1    28    1
     3     2     3   ar
     4     2    29    1
     5     3     4   ar
     6     3    26    1
     7     4     5   ar
     8     4     7    1
     9     5     6   ar
    10     5    30    1
    11     6     1   ar
    12     6    27    1
    13     7    31    1
    14     7    32    1
    15     8     7    1
    16     8     9    1
    17     8    10    1
    18     8    33    1
    19     9    34    1
    20     9    35    1
    21     9    36    1
    22    10    11    1
    23    10    37    1
    24    10    38    1
    25    11    12    2
    26    11    13   am
    27    13    14    1
    28    13    16    1
    29    14    15    1
    30    14    39    1
    31    14    40    1
    32    15    18    1
    33    15    41    1
    34    15    42    1
    35    16    43    1
    36    16    44    1
    37    17    16    1
    38    17    18   ar
    39    18    19   ar
    40    19    20   ar
    41    19    22    1
    42    20    21   ar
    43    21    17   ar
    44    22    23    1
    45    22    24    1
    46    22    25    1
