bindingdb_similar_1x70_processed:66
 OpenBabel04261912203D

 57 60  0  0  1  0  0  0  0  0999 V2000
   34.4478   49.2624   36.3100 C   0  0  0  0  0  0  0  0  0  0  0  0
   34.6270   50.5807   36.6615 C   0  0  0  0  0  0  0  0  0  0  0  0
   35.8957   51.1163   36.7202 C   0  0  0  0  0  0  0  0  0  0  0  0
   36.9960   50.3333   36.4282 C   0  0  0  0  0  0  0  0  0  0  0  0
   36.8111   49.0116   36.0819 C   0  0  0  0  0  0  0  0  0  0  0  0
   35.5445   48.4748   36.0195 C   0  0  0  0  0  0  0  0  0  0  0  0
   38.4077   50.9061   36.4678 C   0  0  0  0  0  0  0  0  0  0  0  0
   39.0779   51.0733   35.0840 C   0  0  2  0  0  0  0  0  0  0  0  0
   40.4590   51.7516   35.2046 C   0  0  0  0  0  0  0  0  0  0  0  0
   38.2202   51.9263   34.1871 N   0  3  0  0  0  0  0  0  0  0  0  0
   41.4917   50.9753   35.9992 C   0  0  0  0  0  0  0  0  0  0  0  0
   42.6701   51.6145   36.1732 N   0  0  0  0  0  0  0  0  0  0  0  0
   41.2488   49.8618   36.4477 O   0  0  0  0  0  0  0  0  0  0  0  0
   43.0250   52.9035   35.5196 C   0  0  0  0  0  0  0  0  0  0  0  0
   44.2360   52.7071   34.5825 C   0  0  0  0  0  0  0  0  0  0  0  0
   43.6790   50.9928   37.0628 C   0  0  1  0  0  0  0  0  0  0  0  0
   45.0387   51.1749   36.4201 C   0  0  0  0  0  0  0  0  0  0  0  0
   45.2407   51.9378   35.3238 N   0  0  0  0  0  0  0  0  0  0  0  0
   46.5452   51.8212   34.9764 N   0  0  0  0  0  0  0  0  0  0  0  0
   47.0770   51.0232   35.8591 C   0  0  0  0  0  0  0  0  0  0  0  0
   46.1762   50.6130   36.7769 N   0  0  0  0  0  0  0  0  0  0  0  0
   36.0454   52.4051   37.0610 F   0  0  0  0  0  0  0  0  0  0  0  0
   33.2098   48.7514   36.2496 F   0  0  0  0  0  0  0  0  0  0  0  0
   35.3815   47.1898   35.6726 F   0  0  0  0  0  0  0  0  0  0  0  0
   48.5202   50.5708   35.8196 C   0  0  0  0  0  0  0  0  0  0  0  0
   49.4036   51.6435   35.7717 F   0  0  0  0  0  0  0  0  0  0  0  0
   48.8508   49.7966   36.9255 F   0  0  0  0  0  0  0  0  0  0  0  0
   48.7402   49.7950   34.6872 F   0  0  0  0  0  0  0  0  0  0  0  0
   43.6216   51.4888   38.5241 C   0  0  0  0  0  0  0  0  0  0  0  0
   42.3154   51.1894   39.2465 C   0  0  0  0  0  0  0  0  0  0  0  0
   42.2063   50.0913   40.0726 C   0  0  0  0  0  0  0  0  0  0  0  0
   41.0221   49.8247   40.7209 C   0  0  0  0  0  0  0  0  0  0  0  0
   39.9373   50.6564   40.5453 C   0  0  0  0  0  0  0  0  0  0  0  0
   40.0419   51.7544   39.7197 C   0  0  0  0  0  0  0  0  0  0  0  0
   41.2278   52.0187   39.0753 C   0  0  0  0  0  0  0  0  0  0  0  0
   38.7830   50.3999   41.1759 F   0  0  0  0  0  0  0  0  0  0  0  0
   33.8343   51.1527   36.8731 H   0  0  0  0  0  0  0  0  0  0  0  0
   37.6030   48.4390   35.8696 H   0  0  0  0  0  0  0  0  0  0  0  0
   39.0759   50.1601   37.1286 H   0  0  0  0  0  0  0  0  0  0  0  0
   38.4106   51.9725   37.0185 H   0  0  0  0  0  0  0  0  0  0  0  0
   39.2109   49.9920   34.5794 H   0  0  0  0  0  0  0  0  0  0  0  0
   40.2735   52.8167   35.7243 H   0  0  0  0  0  0  0  0  0  0  0  0
   40.8730   51.8846   34.0863 H   0  0  0  0  0  0  0  0  0  0  0  0
   37.3965   51.5645   34.0617 H   0  0  0  0  0  0  0  0  0  0  0  0
   38.5824   52.0336   33.3604 H   0  0  0  0  0  0  0  0  0  0  0  0
   38.0920   52.7575   34.5324 H   0  0  0  0  0  0  0  0  0  0  0  0
   42.1731   53.4557   34.8857 H   0  0  0  0  0  0  0  0  0  0  0  0
   43.3661   53.6591   36.3861 H   0  0  0  0  0  0  0  0  0  0  0  0
   43.8974   52.0927   33.6091 H   0  0  0  0  0  0  0  0  0  0  0  0
   44.6800   53.7721   34.2559 H   0  0  0  0  0  0  0  0  0  0  0  0
   43.4813   49.8100   37.0907 H   0  0  0  0  0  0  0  0  0  0  0  0
   44.5210   50.9626   39.1205 H   0  0  0  0  0  0  0  0  0  0  0  0
   43.8200   52.6721   38.5434 H   0  0  0  0  0  0  0  0  0  0  0  0
   42.9913   49.4854   40.2014 H   0  0  0  0  0  0  0  0  0  0  0  0
   40.9484   49.0271   41.3195 H   0  0  0  0  0  0  0  0  0  0  0  0
   39.2562   52.3591   39.5892 H   0  0  0  0  0  0  0  0  0  0  0  0
   41.3010   52.8163   38.4765 H   0  0  0  0  0  0  0  0  0  0  0  0
  1  2  2  0  0  0  0
  1 23  1  0  0  0  0
  2  3  1  0  0  0  0
  2 37  1  0  0  0  0
  3  4  2  0  0  0  0
  3 22  1  0  0  0  0
  4  5  1  0  0  0  0
  4  7  1  0  0  0  0
  5  6  2  0  0  0  0
  5 38  1  0  0  0  0
  6  1  1  0  0  0  0
  6 24  1  0  0  0  0
  7 39  1  0  0  0  0
  7 40  1  0  0  0  0
  8  7  1  0  0  0  0
  8  9  1  0  0  0  0
  8 10  1  0  0  0  0
  8 41  1  6  0  0  0
  9 11  1  0  0  0  0
  9 42  1  0  0  0  0
  9 43  1  0  0  0  0
 10 44  1  0  0  0  0
 10 45  1  0  0  0  0
 10 46  1  0  0  0  0
 11 12  1  0  0  0  0
 11 13  2  0  0  0  0
 12 14  1  0  0  0  0
 12 16  1  0  0  0  0
 14 15  1  0  0  0  0
 14 47  1  0  0  0  0
 14 48  1  0  0  0  0
 15 18  1  0  0  0  0
 15 49  1  0  0  0  0
 15 50  1  0  0  0  0
 16 29  1  0  0  0  0
 16 51  1  1  0  0  0
 17 16  1  0  0  0  0
 17 18  1  0  0  0  0
 18 19  1  0  0  0  0
 19 20  2  0  0  0  0
 20 21  1  0  0  0  0
 20 25  1  0  0  0  0
 21 17  2  0  0  0  0
 25 26  1  0  0  0  0
 25 27  1  0  0  0  0
 25 28  1  0  0  0  0
 29 30  1  0  0  0  0
 29 52  1  0  0  0  0
 29 53  1  0  0  0  0
 30 31  2  0  0  0  0
 31 32  1  0  0  0  0
 31 54  1  0  0  0  0
 32 33  2  0  0  0  0
 32 55  1  0  0  0  0
 33 34  1  0  0  0  0
 33 36  1  0  0  0  0
 34 35  2  0  0  0  0
 34 56  1  0  0  0  0
 35 30  1  0  0  0  0
 35 57  1  0  0  0  0
M  CHG  1  10   1
M  END
>  <Mean(IC50 fixed2)>
4

>  <First(BindingDB Ligand Name)>
CHEMBL401304

>  <Concatenate(Target Name Assigned by Curator or DataSource)>
Dipeptidyl Peptidase IV (DPP-IV)

>  <First(Target Source Organism According to Curator or DataSource)>
Homo sapiens

>  <First(Curation/DataSource)>
ChEMBL

>  <First(Article DOI)>
10.1016/j.bmcl.2007.07.100

>  <Mean(PMID)>
17827003

>  <First(Authors)>
Kowalchick, JE; Leiting, B; Pryor, KD; Marsilio, F; Wu, JK; He, H; Lyons, KA; Eiermann, GJ; Petrov, A; Scapin, G; Patel, RA; Thornberry, NA; Weber, AE; Kim, D

>  <First(Institution)>
Merck Research Laboratories<span class=m1fontSize>Curated by</span> <a href=http://www.ebi.ac.uk/chembl/>ChEMBL</a>

>  <First(Link to Ligand in BindingDB)>
http://www.bindingdb.org/bind/chemsearch/marvin/MolStructure.jsp?monomerid=50221452

>  <First(Link to Ligand-Target Pair in BindingDB)>
http://www.bindingdb.org/jsp/dbsearch/PrimarySearch_ki.jsp?energyterm=kJ/mole&tag=r21&monomerid=50221452&enzyme=Dipeptidyl+Peptidase+IV+%28DPP-IV%29&column=ki&startPg=0&Increment=50&submit=Search

>  <Mean(PubChem CID)>
44444371

>  <Mean(PubChem SID)>
104094109

>  <First(ZINC ID of Ligand)>
ZINC28958958

>  <Concatenate*(UniProt (SwissProt) Entry Name of Target Chain)>
DPP4_HUMAN

>  <Mean(Number of Protein Chains in Target (>1 implies a multichain complex))>
1

>  <Median(pIC50)>
8.39794000867204

>  <Journal>
Kow BioorgMedChemLett2007

>  <Activity Classes>
8.39794000867204

>  <Conformer_cresset>
1

>  <Similarity_cresset>
0.886

>  <Favorite_cresset>
false

>  <Activity (Median(pIC50))_cresset>
8.4

>  <LE (Median(pIC50))_cresset>
0.327

>  <LipE (Median(pIC50))_cresset>
3.4

>  <Tags_cresset>
training

>  <Confs_cresset>
3

>  <Conf#_cresset>
1

>  <Alns_cresset>
3

>  <MW_cresset>
516.4

>  <#Atoms_cresset>
36

>  <SlogP_cresset>
5

>  <TPSA_cresset>
78.7

>  <Flexibility_cresset>
6.9

>  <#RB_cresset>
8

>  <Rof5_cresset>
2

>  <Filename_cresset>
bindingdb_similar_1x70_processed.sdf

>  <Notes_cresset>
30b

>  <Selected Alignment_cresset>
true

>  <Alignment Cluster Centre_cresset>
true

>  <_cresset_fieldpoints>
-5      46.337677      48.895622      37.924091     -3.0919
-5      47.424839      52.336826      33.254051     -2.0666
-5      32.799568      45.956318      35.686699     -2.7985
-5      49.367149      47.012974      35.812752     -1.6934
-5      42.007355      52.346107      42.377804     -1.6737
-5      40.945812      48.542728      37.653526     -9.3881
-6      35.675426      50.592842      33.260632      5.4134
-6      40.552219      54.184807      33.581879     11.0744
-6      43.411278      47.814716      41.686417      2.9906
-6      45.025070      48.845928      40.020782      3.4745
-6      41.122120      54.583107      36.848225     10.8704
-6      41.850849      53.495205      32.733131     11.1692
-7      36.376183      49.091431      39.447971     -2.7448
-7      36.751503      52.572472      40.072063     -1.9550
-7      40.365173      48.258297      37.832485     -3.3665
-7      39.204475      54.240009      37.502632     -2.6876
-7      39.951008      54.379131      33.534927     -1.8972
-7      40.148933      50.299835      32.099480     -1.5187
-7      43.107990      49.591679      34.076572     -2.7123
-7      41.819572      53.401852      32.297550     -1.6261
-7      37.084106      49.389488      32.894505     -2.4243
-7      40.922344      54.748463      37.162235     -2.3884
-7      43.373013      56.067310      34.964436     -1.1388
-7      45.831432      54.148438      37.222946     -2.4022
-7      35.372410      50.394703      33.223053     -2.5495
-7      47.005367      51.754944      39.078400     -2.2116
-7      51.940735      49.436592      35.648376     -1.1036
-7      45.875332      48.813747      38.516140     -2.4345
-7      45.420677      49.892750      33.290298     -2.0705
-7      42.525738      54.950039      38.365879     -2.0368
-7      40.050232      47.952221      36.883217     -2.8798
-7      37.527859      48.357811      39.126434     -2.6393
-7      42.170300      52.727783      42.352757     -1.9270
-8      35.717194      49.794991      36.369358      7.2676
-8      41.122581      50.923988      39.894337      7.2241
-8      39.522114      51.320930      35.949730      4.9922
-8      43.436928      53.312794      34.733341      3.7434
-8      48.615883      50.532669      35.812580      5.5997

$$$$
