@<TRIPOS>MOLECULE
bindingdb_similar_1x70_processed:7
 47 49 0 0 0
SMALL
GASTEIGER

@<TRIPOS>ATOM
      1 C          35.5236   48.5096   36.1404 C.ar    1  LIG1        0.1587
      2 C          34.4321   49.3095   36.4170 C.ar    1  LIG1        0.1584
      3 C          34.6195   50.6369   36.7319 C.ar    1  LIG1       -0.0233
      4 C          35.8904   51.1664   36.7649 C.ar    1  LIG1       -0.0555
      5 C          36.9814   50.3720   36.4863 C.ar    1  LIG1       -0.0392
      6 C          36.7925   49.0426   36.1789 C.ar    1  LIG1       -0.0202
      7 F          35.3550   47.2161   35.8308 F       1  LIG1       -0.2025
      8 F          33.1916   48.8002   36.3792 F       1  LIG1       -0.2025
      9 C          38.3903   50.9507   36.5009 C.3     1  LIG1        0.0160
     10 C          39.0589   51.0698   35.1116 C.3     1  LIG1       -0.0119
     11 C          40.4406   51.7499   35.2059 C.3     1  LIG1        0.0673
     12 C          41.4736   50.9862   36.0118 C.2     1  LIG1        0.2214
     13 N          38.1996   51.9015   34.2008 N.4     1  LIG1        0.2213
     14 O          41.2236   49.8874   36.4888 O.2     1  LIG1       -0.2754
     15 C          43.6770   51.0200   37.0464 C.3     1  LIG1        0.0746
     16 C          43.0194   52.8921   35.4824 C.3     1  LIG1        0.0332
     17 C          44.2328   52.6629   34.5538 C.3     1  LIG1        0.0419
     18 N          42.6581   51.6195   36.1597 N.am    1  LIG1       -0.2923
     19 C          45.0396   51.1908   36.4098 C.ar    1  LIG1        0.1510
     20 C          46.5993   51.8489   35.0056 C.ar    1  LIG1        0.1333
     21 N          45.2706   51.9333   35.2957 N.ar    1  LIG1       -0.3120
     22 N          46.1719   50.6907   36.7940 N.ar    1  LIG1       -0.1327
     23 N          47.1424   51.1015   35.9183 N.ar    1  LIG1       -0.1343
     24 C          47.3192   52.4987   33.8401 C.3     1  LIG1        0.0046
     25 C          47.7794   53.9413   34.1291 C.3     1  LIG1       -0.0584
     26 H          33.8313   51.2181   36.9343 H       1  LIG1        0.0647
     27 H          36.0216   52.1319   36.9901 H       1  LIG1        0.0621
     28 H          37.5820   48.4633   35.9773 H       1  LIG1        0.0650
     29 H          38.3783   52.0385   37.0109 H       1  LIG1        0.0368
     30 H          39.0599   50.2272   37.1848 H       1  LIG1        0.0368
     31 H          39.1862   49.9766   34.6334 H       1  LIG1        0.0858
     32 H          40.2580   52.8272   35.7030 H       1  LIG1        0.0414
     33 H          40.8477   51.8602   34.0819 H       1  LIG1        0.0414
     34 H          37.3781   51.5300   34.0952 H       1  LIG1        0.1997
     35 H          38.5625   51.9838   33.3719 H       1  LIG1        0.1997
     36 H          38.0773   52.7390   34.5325 H       1  LIG1        0.1997
     37 H          43.4621   49.8488   37.1954 H       1  LIG1        0.0545
     38 H          43.6549   51.5658   38.1150 H       1  LIG1        0.0545
     39 H          42.1716   53.4304   34.8307 H       1  LIG1        0.0482
     40 H          43.3588   53.6657   36.3345 H       1  LIG1        0.0482
     41 H          43.8923   52.0091   33.6068 H       1  LIG1        0.0508
     42 H          44.6625   53.7187   34.1795 H       1  LIG1        0.0508
     43 H          46.5734   52.4953   32.8993 H       1  LIG1        0.0341
     44 H          48.2696   51.8212   33.5582 H       1  LIG1        0.0341
     45 H          48.9782   54.0045   34.1167 H       1  LIG1        0.0234
     46 H          47.3867   54.3033   35.2040 H       1  LIG1        0.0234
     47 H          47.3481   54.6868   33.2928 H       1  LIG1        0.0234
@<TRIPOS>BOND
     1     1     2   ar
     2     1     6   ar
     3     1     7    1
     4     2     3   ar
     5     2     8    1
     6     3     4   ar
     7     3    26    1
     8     4     5   ar
     9     4    27    1
    10     5     6   ar
    11     5     9    1
    12     6    28    1
    13     9    29    1
    14     9    30    1
    15    10     9    1
    16    10    11    1
    17    10    13    1
    18    10    31    1
    19    11    12    1
    20    11    32    1
    21    11    33    1
    22    12    14    2
    23    12    18   am
    24    13    34    1
    25    13    35    1
    26    13    36    1
    27    15    18    1
    28    15    19    1
    29    15    37    1
    30    15    38    1
    31    16    17    1
    32    16    39    1
    33    16    40    1
    34    17    21    1
    35    17    41    1
    36    17    42    1
    37    18    16    1
    38    20    23   ar
    39    20    24    1
    40    21    19   ar
    41    21    20   ar
    42    22    19   ar
    43    22    23   ar
    44    24    25    1
    45    24    43    1
    46    24    44    1
    47    25    45    1
    48    25    46    1
    49    25    47    1
