bindingdb_similar_1x70_processed:62
 OpenBabel04261912203D

 54 57  0  0  1  0  0  0  0  0999 V2000
   34.4797   49.2488   36.3966 C   0  0  0  0  0  0  0  0  0  0  0  0
   34.6551   50.5779   36.7070 C   0  0  0  0  0  0  0  0  0  0  0  0
   35.9184   51.1291   36.7077 C   0  0  0  0  0  0  0  0  0  0  0  0
   37.0173   50.3508   36.3990 C   0  0  0  0  0  0  0  0  0  0  0  0
   36.8364   49.0194   36.0910 C   0  0  0  0  0  0  0  0  0  0  0  0
   35.5748   48.4666   36.0867 C   0  0  0  0  0  0  0  0  0  0  0  0
   38.4221   50.9418   36.3868 C   0  0  0  0  0  0  0  0  0  0  0  0
   39.0465   51.1221   34.9846 C   0  0  2  0  0  0  0  0  0  0  0  0
   40.4456   51.7660   35.0844 C   0  0  0  0  0  0  0  0  0  0  0  0
   38.1800   52.0079   34.1317 N   0  3  0  0  0  0  0  0  0  0  0  0
   41.4640   50.9337   35.8421 C   0  0  0  0  0  0  0  0  0  0  0  0
   42.6315   51.5622   36.1116 N   0  0  0  0  0  0  0  0  0  0  0  0
   41.2113   49.7854   36.1826 O   0  0  0  0  0  0  0  0  0  0  0  0
   43.0002   52.8939   35.5541 C   0  0  0  0  0  0  0  0  0  0  0  0
   44.3164   52.8262   34.7478 C   0  0  0  0  0  0  0  0  0  0  0  0
   43.6003   50.8877   37.0102 C   0  0  1  0  0  0  0  0  0  0  0  0
   45.0013   51.1357   36.4885 C   0  0  0  0  0  0  0  0  0  0  0  0
   45.2754   52.0129   35.5008 N   0  0  0  0  0  0  0  0  0  0  0  0
   46.6155   51.9991   35.2971 N   0  0  0  0  0  0  0  0  0  0  0  0
   47.0955   51.1388   36.1511 C   0  0  0  0  0  0  0  0  0  0  0  0
   46.1240   50.5821   36.9060 N   0  0  0  0  0  0  0  0  0  0  0  0
   36.0644   52.4275   37.0108 F   0  0  0  0  0  0  0  0  0  0  0  0
   33.2467   48.7217   36.3964 F   0  0  0  0  0  0  0  0  0  0  0  0
   35.4157   47.1709   35.7796 F   0  0  0  0  0  0  0  0  0  0  0  0
   48.5693   50.8100   36.2768 C   0  0  0  0  0  0  0  0  0  0  0  0
   49.0271   50.1212   35.1597 F   0  0  0  0  0  0  0  0  0  0  0  0
   49.3287   51.9686   36.3931 F   0  0  0  0  0  0  0  0  0  0  0  0
   48.8341   50.0234   37.3927 F   0  0  0  0  0  0  0  0  0  0  0  0
   43.4762   51.3445   38.4792 C   0  0  0  0  0  0  0  0  0  0  0  0
   42.2092   51.0196   39.1484 N   0  0  0  0  0  0  0  0  0  0  0  0
   42.0113   50.0806   40.1043 C   0  0  0  0  0  0  0  0  0  0  0  0
   40.7520   50.1020   40.4988 N   0  0  0  0  0  0  0  0  0  0  0  0
   40.1019   51.0741   39.7882 C   0  0  0  0  0  0  0  0  0  0  0  0
   41.0035   51.6195   38.9753 C   0  0  0  0  0  0  0  0  0  0  0  0
   39.1437   50.0488   34.4569 H   0  0  0  0  0  0  0  0  0  0  0  0
   43.4090   49.7037   36.9743 H   0  0  0  0  0  0  0  0  0  0  0  0
   33.8634   51.1459   36.9317 H   0  0  0  0  0  0  0  0  0  0  0  0
   37.6275   48.4507   35.8659 H   0  0  0  0  0  0  0  0  0  0  0  0
   39.1262   50.2108   37.0260 H   0  0  0  0  0  0  0  0  0  0  0  0
   38.4287   52.0073   36.9387 H   0  0  0  0  0  0  0  0  0  0  0  0
   40.2963   52.8235   35.6323 H   0  0  0  0  0  0  0  0  0  0  0  0
   40.8348   51.9193   33.9592 H   0  0  0  0  0  0  0  0  0  0  0  0
   37.3418   51.6685   34.0323 H   0  0  0  0  0  0  0  0  0  0  0  0
   38.5158   52.1173   33.2926 H   0  0  0  0  0  0  0  0  0  0  0  0
   38.0872   52.8386   34.4918 H   0  0  0  0  0  0  0  0  0  0  0  0
   42.2077   53.4131   34.8226 H   0  0  0  0  0  0  0  0  0  0  0  0
   43.1765   53.6419   36.4749 H   0  0  0  0  0  0  0  0  0  0  0  0
   44.1068   52.3034   33.6882 H   0  0  0  0  0  0  0  0  0  0  0  0
   44.7499   53.9317   34.5748 H   0  0  0  0  0  0  0  0  0  0  0  0
   44.3645   50.8295   39.1023 H   0  0  0  0  0  0  0  0  0  0  0  0
   43.6361   52.5318   38.5354 H   0  0  0  0  0  0  0  0  0  0  0  0
   42.7152   49.4664   40.4612 H   0  0  0  0  0  0  0  0  0  0  0  0
   39.1374   51.3262   39.8655 H   0  0  0  0  0  0  0  0  0  0  0  0
   40.8200   52.3623   38.3315 H   0  0  0  0  0  0  0  0  0  0  0  0
  1  2  2  0  0  0  0
  1 23  1  0  0  0  0
  2  3  1  0  0  0  0
  2 37  1  0  0  0  0
  3  4  2  0  0  0  0
  3 22  1  0  0  0  0
  4  5  1  0  0  0  0
  4  7  1  0  0  0  0
  5  6  2  0  0  0  0
  5 38  1  0  0  0  0
  6  1  1  0  0  0  0
  6 24  1  0  0  0  0
  7 39  1  0  0  0  0
  7 40  1  0  0  0  0
  8  7  1  0  0  0  0
  8  9  1  0  0  0  0
  8 10  1  0  0  0  0
  8 35  1  6  0  0  0
  9 11  1  0  0  0  0
  9 41  1  0  0  0  0
  9 42  1  0  0  0  0
 10 43  1  0  0  0  0
 10 44  1  0  0  0  0
 10 45  1  0  0  0  0
 11 12  1  0  0  0  0
 11 13  2  0  0  0  0
 12 14  1  0  0  0  0
 12 16  1  0  0  0  0
 14 15  1  0  0  0  0
 14 46  1  0  0  0  0
 14 47  1  0  0  0  0
 15 18  1  0  0  0  0
 15 48  1  0  0  0  0
 15 49  1  0  0  0  0
 16 29  1  0  0  0  0
 16 36  1  6  0  0  0
 17 16  1  0  0  0  0
 17 18  1  0  0  0  0
 18 19  1  0  0  0  0
 19 20  2  0  0  0  0
 20 21  1  0  0  0  0
 20 25  1  0  0  0  0
 21 17  2  0  0  0  0
 25 26  1  0  0  0  0
 25 27  1  0  0  0  0
 25 28  1  0  0  0  0
 29 30  1  0  0  0  0
 29 50  1  0  0  0  0
 29 51  1  0  0  0  0
 30 31  1  0  0  0  0
 31 32  2  0  0  0  0
 31 52  1  0  0  0  0
 32 33  1  0  0  0  0
 33 34  2  0  0  0  0
 33 53  1  0  0  0  0
 34 30  1  0  0  0  0
 34 54  1  0  0  0  0
M  CHG  1  10   1
M  END
>  <Mean(IC50 fixed2)>
2

>  <First(BindingDB Ligand Name)>
CHEMBL250147

>  <Concatenate(Target Name Assigned by Curator or DataSource)>
Dipeptidyl Peptidase IV (DPP-IV)

>  <First(Target Source Organism According to Curator or DataSource)>
Homo sapiens

>  <First(Curation/DataSource)>
ChEMBL

>  <First(Article DOI)>
10.1016/j.bmcl.2007.07.100

>  <Mean(PMID)>
17827003

>  <First(Authors)>
Kowalchick, JE; Leiting, B; Pryor, KD; Marsilio, F; Wu, JK; He, H; Lyons, KA; Eiermann, GJ; Petrov, A; Scapin, G; Patel, RA; Thornberry, NA; Weber, AE; Kim, D

>  <First(Institution)>
Merck Research Laboratories<span class=m1fontSize>Curated by</span> <a href=http://www.ebi.ac.uk/chembl/>ChEMBL</a>

>  <First(Link to Ligand in BindingDB)>
http://www.bindingdb.org/bind/chemsearch/marvin/MolStructure.jsp?monomerid=50221449

>  <First(Link to Ligand-Target Pair in BindingDB)>
http://www.bindingdb.org/jsp/dbsearch/PrimarySearch_ki.jsp?energyterm=kJ/mole&tag=r21&monomerid=50221449&enzyme=Dipeptidyl+Peptidase+IV+%28DPP-IV%29&column=ki&startPg=0&Increment=50&submit=Search

>  <Mean(PubChem CID)>
44444386

>  <Mean(PubChem SID)>
104094106

>  <First(ZINC ID of Ligand)>
ZINC28959123

>  <Concatenate*(UniProt (SwissProt) Entry Name of Target Chain)>
DPP4_HUMAN

>  <Mean(Number of Protein Chains in Target (>1 implies a multichain complex))>
1

>  <Median(pIC50)>
8.69897000433602

>  <Journal>
Kow BioorgMedChemLett2007

>  <Activity Classes>
8.69897000433602

>  <Conformer_cresset>
26

>  <Similarity_cresset>
0.845

>  <Favorite_cresset>
false

>  <Activity (Median(pIC50))_cresset>
8.7

>  <LE (Median(pIC50))_cresset>
0.358

>  <LipE (Median(pIC50))_cresset>
5.4

>  <Tags_cresset>
training

>  <Confs_cresset>
130

>  <Conf#_cresset>
26

>  <Alns_cresset>
10

>  <MW_cresset>
488.4

>  <#Atoms_cresset>
34

>  <SlogP_cresset>
3.3

>  <TPSA_cresset>
96.5

>  <Flexibility_cresset>
6.9

>  <#RB_cresset>
8

>  <Rof5_cresset>
0

>  <Filename_cresset>
bindingdb_similar_1x70_processed.sdf

>  <Notes_cresset>
35
mixture of diasterereisomers

>  <Selected Alignment_cresset>
true

>  <Alignment Cluster Centre_cresset>
true

>  <_cresset_fieldpoints>
-5      40.851830      48.649254      37.631756     -9.8103
-5      32.869541      45.896637      35.970181     -3.0888
-5      39.818260      48.951637      41.632885     -9.1804
-5      46.342960      48.482296      37.446224     -1.6770
-5      50.356461      47.585419      36.308788     -1.1766
-6      35.599339      50.691891      33.297047      5.3851
-6      41.047203      54.354858      37.048889     11.7027
-6      42.055183      53.496243      32.685402     11.6369
-6      44.565514      48.671806      39.343628      5.3143
-6      44.680176      54.421833      37.732346      9.2883
-6      42.819138      55.542439      34.576107     11.1905
-6      40.541672      54.393021      33.809971     11.6520
-6      41.067959      54.826675      36.307674     11.6319
-7      37.040600      49.586662      39.544395     -2.5649
-7      36.823399      49.521179      32.908237     -2.4620
-7      39.988575      50.380966      31.952179     -1.4902
-7      39.949577      54.453690      33.512169     -1.8594
-7      42.066029      53.303623      32.224041     -1.5846
-7      40.807854      54.542648      37.353241     -2.2906
-7      39.349613      54.215084      37.492565     -2.4054
-7      38.629341      54.457371      36.516857     -2.2449
-7      43.203991      49.796764      33.855991     -2.6379
-7      45.890839      48.754597      38.557785     -2.2593
-7      43.082302      56.076771      34.989265     -1.1403
-7      45.687431      54.100220      37.495167     -2.4866
-7      46.192001      50.688839      33.095284     -2.0147
-7      46.703236      52.078064      39.262821     -2.1817
-7      35.392551      50.329769      33.248295     -2.5794
-7      40.431915      48.261265      37.698776     -2.9005
-7      43.071041      53.181606      41.154343     -1.5652
-7      52.088844      50.053062      36.543438     -1.1028
-8      35.745735      49.797630      36.395164      7.2650
-8      39.533978      51.341145      35.850819      5.0177
-8      44.155033      51.186668      37.695721      4.0236
-8      43.479710      53.387005      34.854454      3.7551
-8      48.667503      50.787956      36.286091      5.5975
-8      39.940304      51.672523      38.898651      3.4252
-8      37.037209      51.200035      36.601757      5.6308
-8      42.253670      51.115204      39.040783      2.5525

$$$$
