bindingdb_similar_1x70_processed:61
 OpenBabel04261912203D

 55 58  0  0  1  0  0  0  0  0999 V2000
   34.4822   49.2779   36.4141 C   0  0  0  0  0  0  0  0  0  0  0  0
   34.6558   50.5906   36.7884 C   0  0  0  0  0  0  0  0  0  0  0  0
   35.9174   51.1451   36.8080 C   0  0  0  0  0  0  0  0  0  0  0  0
   37.0155   50.3859   36.4528 C   0  0  0  0  0  0  0  0  0  0  0  0
   36.8379   49.0691   36.0875 C   0  0  0  0  0  0  0  0  0  0  0  0
   35.5780   48.5137   36.0642 C   0  0  0  0  0  0  0  0  0  0  0  0
   38.4196   50.9761   36.4413 C   0  0  0  0  0  0  0  0  0  0  0  0
   39.0379   51.1463   35.0339 C   0  0  2  0  0  0  0  0  0  0  0  0
   40.4273   51.8139   35.1094 C   0  0  0  0  0  0  0  0  0  0  0  0
   41.4762   50.9886   35.8313 C   0  0  0  0  0  0  0  0  0  0  0  0
   42.6740   51.5963   35.9895 N   0  0  0  0  0  0  0  0  0  0  0  0
   41.2255   49.8611   36.2361 O   0  0  0  0  0  0  0  0  0  0  0  0
   43.0267   52.9080   35.3791 C   0  0  0  0  0  0  0  0  0  0  0  0
   44.2108   52.7401   34.4013 C   0  0  0  0  0  0  0  0  0  0  0  0
   43.7025   50.9112   36.8107 C   0  0  1  0  0  0  0  0  0  0  0  0
   45.0518   51.1390   36.1594 C   0  0  0  0  0  0  0  0  0  0  0  0
   45.2347   51.9603   35.1045 N   0  0  0  0  0  0  0  0  0  0  0  0
   46.5540   51.9398   34.7920 N   0  0  0  0  0  0  0  0  0  0  0  0
   47.1099   51.1304   35.6507 C   0  0  0  0  0  0  0  0  0  0  0  0
   46.2091   50.6155   36.5140 N   0  0  0  0  0  0  0  0  0  0  0  0
   36.0615   52.4278   37.1723 F   0  0  0  0  0  0  0  0  0  0  0  0
   33.2501   48.7494   36.3894 F   0  0  0  0  0  0  0  0  0  0  0  0
   35.4210   47.2336   35.6970 F   0  0  0  0  0  0  0  0  0  0  0  0
   48.5924   50.8181   35.6902 C   0  0  0  0  0  0  0  0  0  0  0  0
   48.8383   49.5584   36.2261 F   0  0  0  0  0  0  0  0  0  0  0  0
   49.1574   50.8488   34.4202 F   0  0  0  0  0  0  0  0  0  0  0  0
   49.2708   51.7441   36.4742 F   0  0  0  0  0  0  0  0  0  0  0  0
   43.6965   51.3337   38.2963 C   0  0  1  0  0  0  0  0  0  0  0  0
   42.3624   50.9473   38.9621 C   0  0  0  0  0  0  0  0  0  0  0  0
   41.2769   52.0352   38.9447 C   0  0  0  0  0  0  0  0  0  0  0  0
   42.0640   51.7552   40.2349 C   0  0  0  0  0  0  0  0  0  0  0  0
   38.1513   51.9979   34.1672 N   0  3  0  0  0  0  0  0  0  0  0  0
   44.7711   50.6971   39.0066 O   0  0  0  0  0  0  0  0  0  0  0  0
   39.1502   50.0653   34.5253 H   0  0  0  0  0  0  0  0  0  0  0  0
   43.4945   49.7301   36.7743 H   0  0  0  0  0  0  0  0  0  0  0  0
   43.8701   52.5187   38.3605 H   0  0  0  0  0  0  0  0  0  0  0  0
   33.8638   51.1448   37.0443 H   0  0  0  0  0  0  0  0  0  0  0  0
   37.6293   48.5143   35.8312 H   0  0  0  0  0  0  0  0  0  0  0  0
   38.4285   52.0423   36.9920 H   0  0  0  0  0  0  0  0  0  0  0  0
   39.1163   50.2369   37.0790 H   0  0  0  0  0  0  0  0  0  0  0  0
   40.2804   52.8655   35.6690 H   0  0  0  0  0  0  0  0  0  0  0  0
   40.7923   51.9808   33.9783 H   0  0  0  0  0  0  0  0  0  0  0  0
   42.1644   53.4907   34.7875 H   0  0  0  0  0  0  0  0  0  0  0  0
   43.3952   53.6304   36.2631 H   0  0  0  0  0  0  0  0  0  0  0  0
   43.8467   52.1390   33.4284 H   0  0  0  0  0  0  0  0  0  0  0  0
   44.6428   53.8132   34.0821 H   0  0  0  0  0  0  0  0  0  0  0  0
   41.9929   49.8060   38.9878 H   0  0  0  0  0  0  0  0  0  0  0  0
   40.1445   51.6380   38.9464 H   0  0  0  0  0  0  0  0  0  0  0  0
   41.5475   53.0622   38.3863 H   0  0  0  0  0  0  0  0  0  0  0  0
   41.4434   51.1829   41.0877 H   0  0  0  0  0  0  0  0  0  0  0  0
   42.8561   52.6033   40.5404 H   0  0  0  0  0  0  0  0  0  0  0  0
   37.3178   51.6434   34.0820 H   0  0  0  0  0  0  0  0  0  0  0  0
   38.4788   52.0913   33.3233 H   0  0  0  0  0  0  0  0  0  0  0  0
   38.0485   52.8354   34.5078 H   0  0  0  0  0  0  0  0  0  0  0  0
   44.7876   50.9763   39.9730 H   0  0  0  0  0  0  0  0  0  0  0  0
  1  2  2  0  0  0  0
  1 22  1  0  0  0  0
  2  3  1  0  0  0  0
  2 37  1  0  0  0  0
  3  4  2  0  0  0  0
  3 21  1  0  0  0  0
  4  5  1  0  0  0  0
  4  7  1  0  0  0  0
  5  6  2  0  0  0  0
  5 38  1  0  0  0  0
  6  1  1  0  0  0  0
  6 23  1  0  0  0  0
  7  8  1  0  0  0  0
  7 39  1  0  0  0  0
  7 40  1  0  0  0  0
  8  9  1  0  0  0  0
  8 32  1  0  0  0  0
  8 34  1  6  0  0  0
  9 10  1  0  0  0  0
  9 41  1  0  0  0  0
  9 42  1  0  0  0  0
 10 11  1  0  0  0  0
 10 12  2  0  0  0  0
 11 13  1  0  0  0  0
 11 15  1  0  0  0  0
 13 14  1  0  0  0  0
 13 43  1  0  0  0  0
 13 44  1  0  0  0  0
 14 17  1  0  0  0  0
 14 45  1  0  0  0  0
 14 46  1  0  0  0  0
 15 28  1  0  0  0  0
 15 35  1  6  0  0  0
 16 15  1  0  0  0  0
 16 17  1  0  0  0  0
 17 18  1  0  0  0  0
 18 19  2  0  0  0  0
 19 20  1  0  0  0  0
 19 24  1  0  0  0  0
 20 16  2  0  0  0  0
 24 25  1  0  0  0  0
 24 26  1  0  0  0  0
 24 27  1  0  0  0  0
 28 29  1  0  0  0  0
 28 33  1  0  0  0  0
 28 36  1  1  0  0  0
 29 31  1  0  0  0  0
 29 47  1  0  0  0  0
 30 29  1  0  0  0  0
 30 48  1  0  0  0  0
 30 49  1  0  0  0  0
 31 30  1  0  0  0  0
 31 50  1  0  0  0  0
 31 51  1  0  0  0  0
 32 52  1  0  0  0  0
 32 53  1  0  0  0  0
 32 54  1  0  0  0  0
 33 55  1  0  0  0  0
M  CHG  1  32   1
M  END
>  <Mean(IC50 fixed2)>
13

>  <First(BindingDB Ligand Name)>
CHEMBL400722

>  <Concatenate(Target Name Assigned by Curator or DataSource)>
Dipeptidyl Peptidase IV (DPP-IV), Dipeptidyl Peptidase IV (DPP-IV)

>  <First(Target Source Organism According to Curator or DataSource)>
Homo sapiens

>  <First(Curation/DataSource)>
ChEMBL

>  <First(Article DOI)>
10.1016/j.bmcl.2007.07.100

>  <Mean(PMID)>
17827003

>  <First(Authors)>
Kowalchick, JE; Leiting, B; Pryor, KD; Marsilio, F; Wu, JK; He, H; Lyons, KA; Eiermann, GJ; Petrov, A; Scapin, G; Patel, RA; Thornberry, NA; Weber, AE; Kim, D

>  <First(Institution)>
Merck Research Laboratories<span class=m1fontSize>Curated by</span> <a href=http://www.ebi.ac.uk/chembl/>ChEMBL</a>

>  <First(Link to Ligand in BindingDB)>
http://www.bindingdb.org/bind/chemsearch/marvin/MolStructure.jsp?monomerid=50221446

>  <First(Link to Ligand-Target Pair in BindingDB)>
http://www.bindingdb.org/jsp/dbsearch/PrimarySearch_ki.jsp?energyterm=kJ/mole&tag=r21&monomerid=50221446&enzyme=Dipeptidyl+Peptidase+IV+%28DPP-IV%29&column=ki&startPg=0&Increment=50&submit=Search

>  <Mean(PubChem CID)>
44444378

>  <Mean(PubChem SID)>
104094100

>  <First(ZINC ID of Ligand)>
ZINC28959021

>  <Concatenate*(UniProt (SwissProt) Entry Name of Target Chain)>
DPP4_HUMAN, DPP4_HUMAN

>  <Mean(Number of Protein Chains in Target (>1 implies a multichain complex))>
1

>  <Median(pIC50)>
7.88734535913707

>  <Journal>
Kow BioorgMedChemLett2007

>  <Activity Classes>
7.88734535913707

>  <Conformer_cresset>
5

>  <Similarity_cresset>
0.798

>  <Favorite_cresset>
false

>  <Activity (Median(pIC50))_cresset>
7.89

>  <LE (Median(pIC50))_cresset>
0.335

>  <LipE (Median(pIC50))_cresset>
4.4

>  <Tags_cresset>
test

>  <Confs_cresset>
17

>  <Conf#_cresset>
5

>  <Alns_cresset>
10

>  <MW_cresset>
478.4

>  <#Atoms_cresset>
33

>  <SlogP_cresset>
3.5

>  <TPSA_cresset>
98.9

>  <Flexibility_cresset>
7.9

>  <#RB_cresset>
9

>  <Rof5_cresset>
0

>  <Filename_cresset>
bindingdb_similar_1x70_processed.sdf

>  <Notes_cresset>
33b,33d

>  <Selected Alignment_cresset>
true

>  <Alignment Cluster Centre_cresset>
true

>  <_cresset_fieldpoints>
-5      46.268238      49.720699      38.329750    -11.9191
-5      41.483761      48.193016      36.900429     -7.3072
-5      47.293362      52.607548      33.092110     -2.8091
-5      32.852798      45.964531      35.724407     -2.5333
-5      50.252670      47.965977      34.152134     -2.4549
-6      35.521748      50.720665      33.385311      5.6148
-6      41.752430      53.613525      32.651451     10.8587
-6      44.978676      52.203594      41.236660      7.3504
-6      40.447056      54.336376      33.657146     10.8549
-6      41.028839      55.007145      35.951572     10.2521
-7      39.280735      49.247627      39.327259     -2.4457
-7      36.983727      49.480717      32.895630     -2.4301
-7      40.389118      48.264816      37.656544     -2.5963
-7      40.001839      47.955128      36.009575     -2.6595
-7      40.044292      50.361404      32.030220     -1.5247
-7      42.987747      49.660351      33.795811     -2.6594
-7      39.875622      54.471428      33.506836     -1.8631
-7      38.543709      54.495758      36.451881     -2.2169
-7      43.406952      56.090839      34.955742     -1.1401
-7      47.076817      50.900307      38.953655     -2.5811
-7      46.038364      50.667381      32.650944     -2.0046
-7      41.762035      53.498367      32.201965     -1.6167
-7      45.874550      54.067841      37.100723     -2.4987
-7      35.261276      50.481468      33.316238     -2.5485
-7      36.247940      49.000225      39.485394     -2.1666
-7      38.028854      50.375000      39.619621     -2.4805
-7      52.128212      50.110020      35.809113     -1.1027
-7      45.508221      53.109173      40.267601     -1.6569
-7      43.261494      54.905636      38.551567     -1.9813
-7      40.965984      54.951820      36.855698     -2.0200
-7      39.298393      54.276836      37.501472     -2.3368
-7      46.472645      49.208672      38.494911     -2.4522
-8      35.745010      49.830643      36.431686      7.2665
-8      42.431583      51.781815      39.064323      5.8379
-8      39.519066      51.384209      35.885193      4.9912
-8      37.032330      51.215752      36.686291      5.6182
-8      43.413883      53.335171      34.586575      3.7349
-8      48.692039      50.796677      35.695072      5.5953
-8      44.076473      51.554169      37.258484      3.5435

$$$$
