@<TRIPOS>MOLECULE
bindingdb_similar_1x70_processed:24
 44 46 0 0 0
SMALL
GASTEIGER

@<TRIPOS>ATOM
      1 C          34.4426   49.2562   36.3250 C.ar    1  LIG1        0.1991
      2 C          34.6229   50.5733   36.6960 C.ar    1  LIG1        0.1967
      3 C          35.8932   51.1139   36.7337 C.ar    1  LIG1        0.1675
      4 C          36.9915   50.3309   36.4342 C.ar    1  LIG1        0.0341
      5 C          36.8088   49.0037   36.0989 C.ar    1  LIG1        0.1675
      6 C          35.5373   48.4700   36.0276 C.ar    1  LIG1        0.1967
      7 C          38.3985   50.9201   36.4563 C.3     1  LIG1        0.0215
      8 C          39.0705   51.0847   35.0716 C.3     1  LIG1       -0.0117
      9 N          38.2147   51.9331   34.1696 N.4     1  LIG1        0.2213
     10 C          40.4539   51.7589   35.1965 C.3     1  LIG1        0.0673
     11 C          41.4803   50.9724   35.9911 C.2     1  LIG1        0.2214
     12 O          41.2322   49.8587   36.4348 O.2     1  LIG1       -0.2754
     13 N          42.6628   51.6031   36.1677 N.am    1  LIG1       -0.2923
     14 C          43.0278   52.8967   35.5343 C.3     1  LIG1        0.0332
     15 C          44.2459   52.6964   34.6051 C.3     1  LIG1        0.0422
     16 C          43.6802   50.9824   37.0425 C.3     1  LIG1        0.0746
     17 C          45.0473   51.1726   36.4191 C.ar    1  LIG1        0.1512
     18 N          45.2847   51.9487   35.3296 N.ar    1  LIG1       -0.3048
     19 C          46.6174   51.8772   35.0457 C.ar    1  LIG1        0.2376
     20 N          47.1535   51.1018   35.9400 N.ar    1  LIG1       -0.1250
     21 N          46.1781   50.6636   36.7957 N.ar    1  LIG1       -0.1324
     22 C          47.3496   52.5545   33.8999 C.3     1  LIG1        0.4524
     23 F          47.1751   53.9343   33.9158 F       1  LIG1       -0.1632
     24 F          46.8948   52.0887   32.6707 F       1  LIG1       -0.1632
     25 F          48.7180   52.3118   33.9539 F       1  LIG1       -0.1632
     26 F          36.0529   52.4081   37.0569 F       1  LIG1       -0.2020
     27 F          33.2043   48.7418   36.2452 F       1  LIG1       -0.1993
     28 F          35.3652   47.1899   35.6589 F       1  LIG1       -0.1993
     29 F          33.5611   51.3321   37.0140 F       1  LIG1       -0.1993
     30 F          37.8727   48.2308   35.8256 F       1  LIG1       -0.2020
     31 H          39.0724   50.1811   37.1177 H       1  LIG1        0.0370
     32 H          38.3988   51.9906   36.9984 H       1  LIG1        0.0370
     33 H          39.2148   50.0079   34.5622 H       1  LIG1        0.0858
     34 H          37.3931   51.5658   34.0389 H       1  LIG1        0.1997
     35 H          38.5820   52.0467   33.3445 H       1  LIG1        0.1997
     36 H          38.0838   52.7613   34.5216 H       1  LIG1        0.1997
     37 H          40.2735   52.8257   35.7156 H       1  LIG1        0.0414
     38 H          40.8725   51.8946   34.0796 H       1  LIG1        0.0414
     39 H          42.1843   53.4590   34.8969 H       1  LIG1        0.0482
     40 H          43.3637   53.6381   36.4158 H       1  LIG1        0.0482
     41 H          43.9096   52.0670   33.6402 H       1  LIG1        0.0508
     42 H          44.6607   53.7674   34.2596 H       1  LIG1        0.0508
     43 H          43.4671   49.8079   37.1649 H       1  LIG1        0.0545
     44 H          43.6564   51.5082   38.1206 H       1  LIG1        0.0545
@<TRIPOS>BOND
     1     1     2   ar
     2     1    27    1
     3     2     3   ar
     4     2    29    1
     5     3     4   ar
     6     3    26    1
     7     4     5   ar
     8     4     7    1
     9     5     6   ar
    10     5    30    1
    11     6     1   ar
    12     6    28    1
    13     7    31    1
    14     7    32    1
    15     8     7    1
    16     8     9    1
    17     8    10    1
    18     8    33    1
    19     9    34    1
    20     9    35    1
    21     9    36    1
    22    10    11    1
    23    10    37    1
    24    10    38    1
    25    11    12    2
    26    11    13   am
    27    13    14    1
    28    13    16    1
    29    14    15    1
    30    14    39    1
    31    14    40    1
    32    15    18    1
    33    15    41    1
    34    15    42    1
    35    16    43    1
    36    16    44    1
    37    17    16    1
    38    17    18   ar
    39    18    19   ar
    40    19    20   ar
    41    19    22    1
    42    20    21   ar
    43    21    17   ar
    44    22    23    1
    45    22    24    1
    46    22    25    1
