@<TRIPOS>MOLECULE
bindingdb_similar_1x70_processed:16
 44 46 0 0 0
SMALL
GASTEIGER

@<TRIPOS>ATOM
      1 C          34.4427   49.2650   36.3075 C.ar    1  LIG1        0.1289
      2 C          35.5365   48.4688   36.0496 C.ar    1  LIG1        0.0092
      3 C          36.8078   48.9961   36.1220 C.ar    1  LIG1        0.1322
      4 C          36.9948   50.3261   36.4446 C.ar    1  LIG1        0.0284
      5 C          35.8942   51.1154   36.7178 C.ar    1  LIG1        0.1322
      6 C          34.6237   50.5876   36.6459 C.ar    1  LIG1        0.0092
      7 C          38.4023   50.9118   36.4748 C.3     1  LIG1        0.0213
      8 C          39.0670   51.0833   35.0870 C.3     1  LIG1       -0.0117
      9 C          40.4511   51.7561   35.2057 C.3     1  LIG1        0.0673
     10 C          41.4821   50.9683   35.9932 C.2     1  LIG1        0.2214
     11 N          42.6644   51.5996   36.1687 N.am    1  LIG1       -0.2923
     12 O          41.2352   49.8527   36.4327 O.2     1  LIG1       -0.2754
     13 N          38.2117   51.9348   34.1870 N.4     1  LIG1        0.2213
     14 C          43.0279   52.8950   35.5382 C.3     1  LIG1        0.0332
     15 C          44.2453   52.6985   34.6073 C.3     1  LIG1        0.0422
     16 C          43.6826   50.9763   37.0398 C.3     1  LIG1        0.0746
     17 C          45.0485   51.1685   36.4153 C.ar    1  LIG1        0.1512
     18 N          45.2845   51.9479   35.3277 N.ar    1  LIG1       -0.3048
     19 C          46.6167   51.8773   35.0424 C.ar    1  LIG1        0.2376
     20 N          47.1538   51.0995   35.9340 N.ar    1  LIG1       -0.1250
     21 N          46.1795   50.6584   36.7894 N.ar    1  LIG1       -0.1324
     22 C          47.3469   52.5590   33.8978 C.3     1  LIG1        0.4524
     23 F          47.1718   53.9386   33.9182 F       1  LIG1       -0.1632
     24 F          48.7151   52.3166   33.9491 F       1  LIG1       -0.1632
     25 F          46.8904   52.0969   32.6679 F       1  LIG1       -0.1632
     26 F          36.0433   52.4065   37.0492 F       1  LIG1       -0.2050
     27 F          33.2064   48.7530   36.2307 F       1  LIG1       -0.2053
     28 F          37.8621   48.2060   35.8720 F       1  LIG1       -0.2050
     29 H          35.4082   47.5074   35.8064 H       1  LIG1        0.0675
     30 H          33.8313   51.1675   36.8347 H       1  LIG1        0.0675
     31 H          38.4041   51.9808   37.0206 H       1  LIG1        0.0370
     32 H          39.0739   50.1693   37.1352 H       1  LIG1        0.0370
     33 H          39.2107   50.0068   34.5775 H       1  LIG1        0.0858
     34 H          40.2727   52.8217   35.7286 H       1  LIG1        0.0414
     35 H          40.8652   51.8933   34.0871 H       1  LIG1        0.0414
     36 H          37.3874   51.5705   34.0598 H       1  LIG1        0.1997
     37 H          38.5782   52.0420   33.3602 H       1  LIG1        0.1997
     38 H          38.0861   52.7666   34.5344 H       1  LIG1        0.1997
     39 H          42.1834   53.4562   34.9017 H       1  LIG1        0.0482
     40 H          43.3640   53.6352   36.4211 H       1  LIG1        0.0482
     41 H          43.9091   52.0720   33.6407 H       1  LIG1        0.0508
     42 H          44.6593   53.7710   34.2645 H       1  LIG1        0.0508
     43 H          43.4697   49.8011   37.1546 H       1  LIG1        0.0545
     44 H          43.6584   51.4974   38.1211 H       1  LIG1        0.0545
@<TRIPOS>BOND
     1     1     2   ar
     2     1    27    1
     3     2     3   ar
     4     2    29    1
     5     3     4   ar
     6     3    28    1
     7     4     5   ar
     8     4     7    1
     9     5     6   ar
    10     5    26    1
    11     6     1   ar
    12     6    30    1
    13     7    31    1
    14     7    32    1
    15     8     7    1
    16     8     9    1
    17     8    13    1
    18     8    33    1
    19     9    10    1
    20     9    34    1
    21     9    35    1
    22    10    11   am
    23    10    12    2
    24    11    14    1
    25    11    16    1
    26    13    36    1
    27    13    37    1
    28    13    38    1
    29    14    15    1
    30    14    39    1
    31    14    40    1
    32    15    18    1
    33    15    41    1
    34    15    42    1
    35    16    43    1
    36    16    44    1
    37    17    16    1
    38    17    18   ar
    39    18    19   ar
    40    19    20   ar
    41    19    22    1
    42    20    21   ar
    43    21    17   ar
    44    22    23    1
    45    22    24    1
    46    22    25    1
