bindingdb_similar_1x70_processed:10
 OpenBabel04261912203D

 44 46  0  0  1  0  0  0  0  0999 V2000
   34.4829   49.2051   36.3844 C   0  0  0  0  0  0  0  0  0  0  0  0
   35.5993   48.4475   36.1039 C   0  0  0  0  0  0  0  0  0  0  0  0
   36.8482   49.0310   36.1140 C   0  0  0  0  0  0  0  0  0  0  0  0
   36.9842   50.3715   36.3994 C   0  0  0  0  0  0  0  0  0  0  0  0
   35.8646   51.1242   36.6788 C   0  0  0  0  0  0  0  0  0  0  0  0
   34.6168   50.5432   36.6724 C   0  0  0  0  0  0  0  0  0  0  0  0
   38.3556   51.0292   36.4084 C   0  0  0  0  0  0  0  0  0  0  0  0
   39.0580   51.1149   35.0346 C   0  0  1  0  0  0  0  0  0  0  0  0
   38.2240   51.9184   34.0759 N   0  3  0  0  0  0  0  0  0  0  0  0
   40.4378   51.7936   35.1655 C   0  0  0  0  0  0  0  0  0  0  0  0
   41.4455   50.9925   35.9688 C   0  0  0  0  0  0  0  0  0  0  0  0
   41.1659   49.8872   36.4138 O   0  0  0  0  0  0  0  0  0  0  0  0
   42.6431   51.5946   36.1466 N   0  0  0  0  0  0  0  0  0  0  0  0
   43.0272   52.8977   35.5447 C   0  0  0  0  0  0  0  0  0  0  0  0
   44.2532   52.7192   34.6212 C   0  0  0  0  0  0  0  0  0  0  0  0
   43.6534   50.9350   37.0009 C   0  0  0  0  0  0  0  0  0  0  0  0
   45.0251   51.1239   36.3854 C   0  0  0  0  0  0  0  0  0  0  0  0
   45.2791   51.9358   35.3257 N   0  0  0  0  0  0  0  0  0  0  0  0
   46.6128   51.8566   35.0461 C   0  0  0  0  0  0  0  0  0  0  0  0
   47.1316   51.0374   35.9107 N   0  0  0  0  0  0  0  0  0  0  0  0
   46.1459   50.5818   36.7451 N   0  0  0  0  0  0  0  0  0  0  0  0
   47.3659   52.5731   33.9374 C   0  0  0  0  0  0  0  0  0  0  0  0
   47.2513   53.9549   34.0452 F   0  0  0  0  0  0  0  0  0  0  0  0
   46.8877   52.2092   32.6831 F   0  0  0  0  0  0  0  0  0  0  0  0
   48.7233   52.2706   33.9642 F   0  0  0  0  0  0  0  0  0  0  0  0
   35.4700   47.1445   35.8197 F   0  0  0  0  0  0  0  0  0  0  0  0
   39.2022   50.0081   34.5935 H   0  0  0  0  0  0  0  0  0  0  0  0
   33.5765   48.7826   36.3781 H   0  0  0  0  0  0  0  0  0  0  0  0
   37.6574   48.4799   35.9107 H   0  0  0  0  0  0  0  0  0  0  0  0
   35.9590   52.0976   36.8873 H   0  0  0  0  0  0  0  0  0  0  0  0
   33.8077   51.0942   36.8765 H   0  0  0  0  0  0  0  0  0  0  0  0
   38.2550   52.1413   36.8492 H   0  0  0  0  0  0  0  0  0  0  0  0
   39.0463   50.3987   37.1592 H   0  0  0  0  0  0  0  0  0  0  0  0
   37.3992   51.5535   33.9563 H   0  0  0  0  0  0  0  0  0  0  0  0
   38.6036   51.9773   33.2508 H   0  0  0  0  0  0  0  0  0  0  0  0
   38.0960   52.7690   34.3723 H   0  0  0  0  0  0  0  0  0  0  0  0
   40.2535   52.8589   35.6864 H   0  0  0  0  0  0  0  0  0  0  0  0
   40.8685   51.9325   34.0539 H   0  0  0  0  0  0  0  0  0  0  0  0
   42.1905   53.4816   34.9183 H   0  0  0  0  0  0  0  0  0  0  0  0
   43.3611   53.6131   36.4485 H   0  0  0  0  0  0  0  0  0  0  0  0
   43.9204   52.1272   33.6318 H   0  0  0  0  0  0  0  0  0  0  0  0
   44.6821   53.7976   34.3175 H   0  0  0  0  0  0  0  0  0  0  0  0
   43.4236   49.7605   37.0872 H   0  0  0  0  0  0  0  0  0  0  0  0
   43.6345   51.4271   38.0952 H   0  0  0  0  0  0  0  0  0  0  0  0
  1  2  2  0  0  0  0
  1 28  1  0  0  0  0
  2  3  1  0  0  0  0
  2 26  1  0  0  0  0
  3  4  2  0  0  0  0
  3 29  1  0  0  0  0
  4  5  1  0  0  0  0
  4  7  1  0  0  0  0
  5  6  2  0  0  0  0
  5 30  1  0  0  0  0
  6  1  1  0  0  0  0
  6 31  1  0  0  0  0
  7 32  1  0  0  0  0
  7 33  1  0  0  0  0
  8  7  1  0  0  0  0
  8  9  1  0  0  0  0
  8 10  1  0  0  0  0
  8 27  1  6  0  0  0
  9 34  1  0  0  0  0
  9 35  1  0  0  0  0
  9 36  1  0  0  0  0
 10 11  1  0  0  0  0
 10 37  1  0  0  0  0
 10 38  1  0  0  0  0
 11 12  2  0  0  0  0
 11 13  1  0  0  0  0
 13 14  1  0  0  0  0
 13 16  1  0  0  0  0
 14 15  1  0  0  0  0
 14 39  1  0  0  0  0
 14 40  1  0  0  0  0
 15 18  1  0  0  0  0
 15 41  1  0  0  0  0
 15 42  1  0  0  0  0
 16 43  1  0  0  0  0
 16 44  1  0  0  0  0
 17 16  1  0  0  0  0
 17 18  1  0  0  0  0
 18 19  1  0  0  0  0
 19 20  2  0  0  0  0
 19 22  1  0  0  0  0
 20 21  1  0  0  0  0
 21 17  2  0  0  0  0
 22 23  1  0  0  0  0
 22 24  1  0  0  0  0
 22 25  1  0  0  0  0
M  CHG  1   9   1
M  END
>  <Mean(IC50 fixed2)>
135

>  <First(BindingDB Ligand Name)>
CHEMBL232262

>  <Concatenate(Target Name Assigned by Curator or DataSource)>
Dipeptidyl Peptidase IV (DPP-IV)

>  <First(Target Source Organism According to Curator or DataSource)>
Homo sapiens

>  <First(Curation/DataSource)>
ChEMBL

>  <First(Article DOI)>
10.1016/j.bmcl.2007.03.098

>  <Mean(PMID)>
17434732

>  <First(Authors)>
Kim, D; Kowalchick, JE; Edmondson, SD; Mastracchio, A; Xu, J; Eiermann, GJ; Leiting, B; Wu, JK; Pryor, KD; Patel, RA; He, H; Lyons, KA; Thornberry, NA; Weber, AE

>  <First(Institution)>
Merck Research Laboratories<span class=m1fontSize>Curated by</span> <a href=http://www.ebi.ac.uk/chembl/>ChEMBL</a>

>  <First(Link to Ligand in BindingDB)>
http://www.bindingdb.org/bind/chemsearch/marvin/MolStructure.jsp?monomerid=50210662

>  <First(Link to Ligand-Target Pair in BindingDB)>
http://www.bindingdb.org/jsp/dbsearch/PrimarySearch_ki.jsp?energyterm=kJ/mole&tag=r21&monomerid=50210662&enzyme=Dipeptidyl+Peptidase+IV+%28DPP-IV%29&column=ki&startPg=0&Increment=50&submit=Search

>  <Mean(PubChem CID)>
44431165

>  <Mean(PubChem SID)>
104087149

>  <First(ZINC ID of Ligand)>
ZINC28820691

>  <Concatenate*(UniProt (SwissProt) Entry Name of Target Chain)>
DPP4_HUMAN

>  <Mean(Number of Protein Chains in Target (>1 implies a multichain complex))>
1

>  <Median(pIC50)>
6.86966623150499

>  <Journal>
BiorgMedChemLett2007

>  <Activity Classes>
6.86966623150499

>  <Conformer_cresset>
2

>  <Similarity_cresset>
0.844

>  <Favorite_cresset>
false

>  <Activity (Median(pIC50))_cresset>
6.87

>  <LE (Median(pIC50))_cresset>
0.370

>  <LipE (Median(pIC50))_cresset>
4.9

>  <Tags_cresset>
training

>  <Confs_cresset>
2

>  <Conf#_cresset>
2

>  <Alns_cresset>
2

>  <MW_cresset>
372.3

>  <#Atoms_cresset>
26

>  <SlogP_cresset>
2

>  <TPSA_cresset>
78.7

>  <Flexibility_cresset>
4.9

>  <#RB_cresset>
6

>  <Rof5_cresset>
0

>  <Filename_cresset>
bindingdb_similar_1x70_processed.sdf

>  <Notes_cresset>
21

>  <Selected Alignment_cresset>
true

>  <Alignment Cluster Centre_cresset>
true

>  <_cresset_fieldpoints>
-5      36.408890      48.950836      39.202347     -2.8472
-5      47.794498      49.773022      37.119587    -12.3505
-5      40.349419      48.302162      36.663258     -8.0602
-6      42.057468      53.540527      32.728855     11.5941
-7      37.157627      49.296864      32.910622     -2.3584
-7      35.509960      50.143387      33.164768     -2.3530
-7      31.249666      50.060211      36.876026     -0.9918
-7      40.013485      47.953423      36.040039     -2.5052
-7      37.041412      54.232956      36.071545     -1.9502
-7      35.578037      53.279560      34.294598     -1.8463
-7      40.894405      52.554756      38.327820     -2.6028
-7      40.301426      50.201000      32.156910     -1.5277
-7      39.983021      54.373367      33.406761     -1.8357
-7      44.599857      54.353363      31.790733     -1.5572
-7      38.167393      54.511768      36.148380     -1.8188
-7      47.251629      48.678322      35.444935     -1.4921
-7      45.791470      54.402245      37.034939     -2.3076
-7      49.137375      54.272293      31.293659     -1.1101
-7      41.943108      53.425175      32.300514     -1.6917
-7      47.950401      51.858913      38.026058     -1.4902
-7      43.037804      49.700222      33.921364     -2.7159
-7      36.272827      49.059078      39.493111     -1.9384
-8      35.735134      49.782059      36.389023      7.2142
-8      43.477234      53.311253      34.769855      3.7908
-8      47.391594      52.619190      33.866604      5.6552
-8      43.703476      52.032017      36.163342      2.6662
-8      44.160629      50.765686      37.324566      2.7934
-8      39.479801      51.398087      35.888638      4.9516

$$$$
