bindingdb_similar_1x70_processed:4
 OpenBabel04261912203D

 48 50  0  0  1  0  0  0  0  0999 V2000
   34.4583   49.5060   35.8129 C   0  0  0  0  0  0  0  0  0  0  0  0
   34.7125   50.6764   36.7736 C   0  0  0  0  0  0  0  0  0  0  0  0
   36.1349   51.2067   36.7928 C   0  0  0  0  0  0  0  0  0  0  0  0
   37.1067   50.3064   36.5215 N   0  0  0  0  0  0  0  0  0  0  0  0
   36.8490   48.9334   36.0397 C   0  0  0  0  0  0  0  0  0  0  0  0
   35.4245   48.3910   36.2177 C   0  0  0  0  0  0  0  0  0  0  0  0
   38.5146   50.7179   36.6401 C   0  0  0  0  0  0  0  0  0  0  0  0
   39.2113   50.9353   35.2808 C   0  0  2  0  0  0  0  0  0  0  0  0
   40.5202   51.7364   35.4403 C   0  0  0  0  0  0  0  0  0  0  0  0
   41.5847   51.0259   36.2560 C   0  0  0  0  0  0  0  0  0  0  0  0
   38.2933   51.6954   34.3680 N   0  3  0  0  0  0  0  0  0  0  0  0
   42.7207   51.7326   36.4462 N   0  0  0  0  0  0  0  0  0  0  0  0
   41.4033   49.8995   36.6992 O   0  0  0  0  0  0  0  0  0  0  0  0
   36.3383   52.3827   37.0625 O   0  0  0  0  0  0  0  0  0  0  0  0
   43.0159   53.0474   35.8234 C   0  0  0  0  0  0  0  0  0  0  0  0
   44.1768   52.8768   34.8171 C   0  0  0  0  0  0  0  0  0  0  0  0
   43.7879   51.1678   37.2960 C   0  0  0  0  0  0  0  0  0  0  0  0
   45.0852   51.2859   36.5255 C   0  0  0  0  0  0  0  0  0  0  0  0
   45.2450   52.0662   35.4239 N   0  0  0  0  0  0  0  0  0  0  0  0
   46.5324   51.9239   34.9950 C   0  0  0  0  0  0  0  0  0  0  0  0
   47.1151   51.0989   35.8121 N   0  0  0  0  0  0  0  0  0  0  0  0
   46.2166   50.7019   36.7657 N   0  0  0  0  0  0  0  0  0  0  0  0
   47.1777   52.5876   33.7906 C   0  0  0  0  0  0  0  0  0  0  0  0
   46.5428   52.2199   32.6089 F   0  0  0  0  0  0  0  0  0  0  0  0
   48.5163   52.2304   33.6692 F   0  0  0  0  0  0  0  0  0  0  0  0
   47.1273   53.9746   33.8799 F   0  0  0  0  0  0  0  0  0  0  0  0
   39.4518   49.8695   34.7846 H   0  0  0  0  0  0  0  0  0  0  0  0
   34.6730   49.8460   34.6824 H   0  0  0  0  0  0  0  0  0  0  0  0
   33.3241   49.1287   35.9198 H   0  0  0  0  0  0  0  0  0  0  0  0
   34.4328   50.3216   37.8853 H   0  0  0  0  0  0  0  0  0  0  0  0
   33.9799   51.5775   36.4712 H   0  0  0  0  0  0  0  0  0  0  0  0
   37.0854   48.9284   34.8630 H   0  0  0  0  0  0  0  0  0  0  0  0
   37.6037   48.1687   36.5739 H   0  0  0  0  0  0  0  0  0  0  0  0
   35.2623   47.4260   35.5231 H   0  0  0  0  0  0  0  0  0  0  0  0
   35.2419   48.0994   37.3673 H   0  0  0  0  0  0  0  0  0  0  0  0
   38.5528   51.7406   37.2657 H   0  0  0  0  0  0  0  0  0  0  0  0
   39.1168   49.8886   37.2632 H   0  0  0  0  0  0  0  0  0  0  0  0
   40.2342   52.7779   35.9633 H   0  0  0  0  0  0  0  0  0  0  0  0
   40.9455   51.9283   34.3344 H   0  0  0  0  0  0  0  0  0  0  0  0
   37.5065   51.2564   34.2402 H   0  0  0  0  0  0  0  0  0  0  0  0
   38.6590   51.8270   33.5451 H   0  0  0  0  0  0  0  0  0  0  0  0
   38.0871   52.5163   34.7019 H   0  0  0  0  0  0  0  0  0  0  0  0
   42.1151   53.6091   35.2694 H   0  0  0  0  0  0  0  0  0  0  0  0
   43.4036   53.7693   36.7001 H   0  0  0  0  0  0  0  0  0  0  0  0
   43.7691   52.3130   33.8393 H   0  0  0  0  0  0  0  0  0  0  0  0
   44.5991   53.9565   34.5083 H   0  0  0  0  0  0  0  0  0  0  0  0
   43.5740   50.0145   37.5480 H   0  0  0  0  0  0  0  0  0  0  0  0
   43.8665   51.7967   38.3151 H   0  0  0  0  0  0  0  0  0  0  0  0
  1  2  1  0  0  0  0
  1  6  1  0  0  0  0
  1 28  1  0  0  0  0
  1 29  1  0  0  0  0
  2  3  1  0  0  0  0
  2 30  1  0  0  0  0
  2 31  1  0  0  0  0
  3  4  1  0  0  0  0
  3 14  2  0  0  0  0
  4  5  1  0  0  0  0
  4  7  1  0  0  0  0
  5  6  1  0  0  0  0
  5 32  1  0  0  0  0
  5 33  1  0  0  0  0
  6 34  1  0  0  0  0
  6 35  1  0  0  0  0
  7 36  1  0  0  0  0
  7 37  1  0  0  0  0
  8  7  1  0  0  0  0
  8  9  1  0  0  0  0
  8 11  1  0  0  0  0
  8 27  1  6  0  0  0
  9 10  1  0  0  0  0
  9 38  1  0  0  0  0
  9 39  1  0  0  0  0
 10 12  1  0  0  0  0
 10 13  2  0  0  0  0
 11 40  1  0  0  0  0
 11 41  1  0  0  0  0
 11 42  1  0  0  0  0
 12 15  1  0  0  0  0
 12 17  1  0  0  0  0
 15 16  1  0  0  0  0
 15 43  1  0  0  0  0
 15 44  1  0  0  0  0
 16 19  1  0  0  0  0
 16 45  1  0  0  0  0
 16 46  1  0  0  0  0
 17 47  1  0  0  0  0
 17 48  1  0  0  0  0
 18 17  1  0  0  0  0
 18 19  1  0  0  0  0
 19 20  1  0  0  0  0
 20 21  2  0  0  0  0
 20 23  1  0  0  0  0
 21 22  1  0  0  0  0
 22 18  2  0  0  0  0
 23 24  1  0  0  0  0
 23 25  1  0  0  0  0
 23 26  1  0  0  0  0
M  CHG  1  11   1
M  END
>  <Mean(IC50 fixed2)>
120

>  <First(BindingDB Ligand Name)>
CHEMBL488678

>  <Concatenate(Target Name Assigned by Curator or DataSource)>
Dipeptidyl Peptidase IV (DPP-IV)

>  <First(Target Source Organism According to Curator or DataSource)>
Homo sapiens

>  <First(Curation/DataSource)>
ChEMBL

>  <First(Article DOI)>
10.1016/j.bmcl.2008.05.061

>  <Mean(PMID)>
18524582

>  <First(Authors)>
Liang, GB; Qian, X; Biftu, T; Singh, S; Gao, YD; Scapin, G; Patel, S; Leiting, B; Patel, R; Wu, J; Zhang, X; Thornberry, NA; Weber, AE

>  <First(Institution)>
Merck Research Laboratories<span class=m1fontSize>Curated by</span> <a href=http://www.ebi.ac.uk/chembl/>ChEMBL</a>

>  <First(Link to Ligand in BindingDB)>
http://www.bindingdb.org/bind/chemsearch/marvin/MolStructure.jsp?monomerid=50244356

>  <First(Link to Ligand-Target Pair in BindingDB)>
http://www.bindingdb.org/jsp/dbsearch/PrimarySearch_ki.jsp?energyterm=kJ/mole&tag=r21&monomerid=50244356&enzyme=Dipeptidyl+Peptidase+IV+%28DPP-IV%29&column=ki&startPg=0&Increment=50&submit=Search

>  <Mean(PubChem CID)>
11952574

>  <Mean(PubChem SID)>
104100396

>  <First(ZINC ID of Ligand)>
ZINC45496148

>  <Concatenate*(UniProt (SwissProt) Entry Name of Target Chain)>
DPP4_HUMAN

>  <Mean(Number of Protein Chains in Target (>1 implies a multichain complex))>
1

>  <Median(pIC50)>
6.92081875395237

>  <Activity Classes>
6.92081875395237

>  <Conformer_cresset>
14

>  <Similarity_cresset>
0.776

>  <Favorite_cresset>
false

>  <Activity (Median(pIC50))_cresset>
6.92

>  <LE (Median(pIC50))_cresset>
0.373

>  <LipE (Median(pIC50))_cresset>
6.6

>  <Tags_cresset>
training

>  <Confs_cresset>
40

>  <Conf#_cresset>
14

>  <Alns_cresset>
10

>  <MW_cresset>
375.4

>  <#Atoms_cresset>
26

>  <SlogP_cresset>
0.4

>  <TPSA_cresset>
99

>  <Flexibility_cresset>
5.8

>  <#RB_cresset>
6

>  <Rof5_cresset>
0

>  <Filename_cresset>
bindingdb_similar_1x70_processed.sdf

>  <Selected Alignment_cresset>
true

>  <Alignment Cluster Centre_cresset>
true

>  <_cresset_fieldpoints>
-5      35.230469      53.622780      37.543434    -10.0297
-5      47.864254      49.837051      36.970108    -12.4547
-5      41.648861      48.262836      37.438953     -7.0090
-6      41.918530      53.627670      33.035042     11.2710
-6      38.075832      49.449463      32.721443      6.2590
-6      36.511688      49.735180      32.827412      6.0990
-6      32.844269      48.223160      38.190105      3.9224
-7      40.525146      50.295864      32.345631     -1.5044
-7      32.816025      48.280499      38.469334     -1.4462
-7      35.656326      48.272957      32.826424     -1.5279
-7      36.263378      49.822556      32.663368     -1.8317
-7      35.443478      52.598495      34.259712     -2.2701
-7      36.789585      49.495182      39.211872     -2.4260
-7      37.957390      54.102520      36.612385     -2.0976
-7      37.434147      46.277355      34.303627     -1.1794
-7      40.295227      47.854248      36.155643     -2.2262
-7      36.849823      45.794754      37.545025     -1.1089
-7      38.040707      49.404942      32.563393     -1.8223
-7      41.013844      52.702324      38.564079     -2.4798
-7      39.852493      54.293240      33.715324     -1.8272
-7      41.730522      53.677158      32.666969     -1.7192
-7      44.275620      54.479912      31.971537     -1.5853
-7      48.214649      51.910275      37.798306     -1.4880
-7      47.067646      48.725861      35.377533     -1.4941
-7      48.689114      54.166512      30.917389     -1.1106
-7      43.173134      49.809410      34.152702     -2.8106
-7      45.940708      54.547813      37.010513     -2.3312
-8      35.222679      49.534206      36.340416      5.5469
-8      39.697166      51.254284      36.119175      4.7623
-8      47.192020      52.632648      33.722416      5.6556
-8      43.406525      53.463005      35.012997      3.7913
-8      44.335114      51.074753      37.606110      2.7990
-8      43.775959      52.245922      36.460060      2.7033

$$$$
