Copy of bindingdb_similar_1x70_processed:65
 OpenBabel04261912203D

 57 60  0  0  1  0  0  0  0  0999 V2000
   34.4448   49.2630   36.3129 C   0  0  0  0  0  0  0  0  0  0  0  0
   34.6248   50.5806   36.6669 C   0  0  0  0  0  0  0  0  0  0  0  0
   35.8934   51.1164   36.7233 C   0  0  0  0  0  0  0  0  0  0  0  0
   36.9924   50.3336   36.4282 C   0  0  0  0  0  0  0  0  0  0  0  0
   36.8076   49.0122   36.0819 C   0  0  0  0  0  0  0  0  0  0  0  0
   35.5407   48.4755   36.0200 C   0  0  0  0  0  0  0  0  0  0  0  0
   35.3774   47.1906   35.6726 F   0  0  0  0  0  0  0  0  0  0  0  0
   33.2065   48.7521   36.2537 F   0  0  0  0  0  0  0  0  0  0  0  0
   36.0443   52.4044   37.0657 F   0  0  0  0  0  0  0  0  0  0  0  0
   38.4037   50.9069   36.4675 C   0  0  0  0  0  0  0  0  0  0  0  0
   39.0772   51.0742   35.0863 C   0  0  2  0  0  0  0  0  0  0  0  0
   40.4571   51.7542   35.2044 C   0  0  0  0  0  0  0  0  0  0  0  0
   38.2199   51.9270   34.1963 N   0  3  0  0  0  0  0  0  0  0  0  0
   41.4855   50.9711   35.9957 C   0  0  0  0  0  0  0  0  0  0  0  0
   42.6685   51.6023   36.1683 N   0  0  0  0  0  0  0  0  0  0  0  0
   43.0239   52.8948   35.5240 C   0  0  0  0  0  0  0  0  0  0  0  0
   44.2449   52.6922   34.6020 C   0  0  0  0  0  0  0  0  0  0  0  0
   43.6794   50.9720   37.0491 C   0  0  1  0  0  0  0  0  0  0  0  0
   46.1784   50.6651   36.7968 N   0  0  0  0  0  0  0  0  0  0  0  0
   45.0458   51.1734   36.4238 C   0  0  0  0  0  0  0  0  0  0  0  0
   45.2817   51.9481   35.3317 N   0  0  0  0  0  0  0  0  0  0  0  0
   46.6139   51.8782   35.0455 C   0  0  0  0  0  0  0  0  0  0  0  0
   47.1518   51.1034   35.9386 N   0  0  0  0  0  0  0  0  0  0  0  0
   47.3431   52.5561   33.8971 C   0  0  0  0  0  0  0  0  0  0  0  0
   47.1664   53.9355   33.9113 F   0  0  0  0  0  0  0  0  0  0  0  0
   48.7121   52.3171   33.9474 F   0  0  0  0  0  0  0  0  0  0  0  0
   46.8875   52.0888   32.6689 F   0  0  0  0  0  0  0  0  0  0  0  0
   41.2354   49.8585   36.4401 O   0  0  0  0  0  0  0  0  0  0  0  0
   43.6188   51.4756   38.5082 C   0  0  0  0  0  0  0  0  0  0  0  0
   42.3132   51.1861   39.2352 C   0  0  0  0  0  0  0  0  0  0  0  0
   41.2266   52.0169   39.0658 C   0  0  0  0  0  0  0  0  0  0  0  0
   40.0417   51.7542   39.7143 C   0  0  0  0  0  0  0  0  0  0  0  0
   39.9395   50.6593   40.5412 C   0  0  0  0  0  0  0  0  0  0  0  0
   41.0232   49.8301   40.7195 C   0  0  0  0  0  0  0  0  0  0  0  0
   42.2064   50.0932   40.0674 C   0  0  0  0  0  0  0  0  0  0  0  0
   33.8325   51.1517   36.8814 H   0  0  0  0  0  0  0  0  0  0  0  0
   37.5995   48.4399   35.8691 H   0  0  0  0  0  0  0  0  0  0  0  0
   38.4110   51.9721   37.0197 H   0  0  0  0  0  0  0  0  0  0  0  0
   39.0741   50.1602   37.1228 H   0  0  0  0  0  0  0  0  0  0  0  0
   39.2059   49.9967   34.5741 H   0  0  0  0  0  0  0  0  0  0  0  0
   40.2722   52.8198   35.7245 H   0  0  0  0  0  0  0  0  0  0  0  0
   40.8659   51.8905   34.0840 H   0  0  0  0  0  0  0  0  0  0  0  0
   37.3951   51.5586   34.0822 H   0  0  0  0  0  0  0  0  0  0  0  0
   38.5847   52.0258   33.3672 H   0  0  0  0  0  0  0  0  0  0  0  0
   38.1006   52.7593   34.5486 H   0  0  0  0  0  0  0  0  0  0  0  0
   42.1808   53.4363   34.8694 H   0  0  0  0  0  0  0  0  0  0  0  0
   43.3460   53.6647   36.3858 H   0  0  0  0  0  0  0  0  0  0  0  0
   43.9126   52.0659   33.6335 H   0  0  0  0  0  0  0  0  0  0  0  0
   44.6612   53.7643   34.2627 H   0  0  0  0  0  0  0  0  0  0  0  0
   43.4790   49.7892   37.0710 H   0  0  0  0  0  0  0  0  0  0  0  0
   44.5201   50.9582   39.1099 H   0  0  0  0  0  0  0  0  0  0  0  0
   43.8150   52.6593   38.5191 H   0  0  0  0  0  0  0  0  0  0  0  0
   41.2988   52.8135   38.4654 H   0  0  0  0  0  0  0  0  0  0  0  0
   39.2559   52.3587   39.5842 H   0  0  0  0  0  0  0  0  0  0  0  0
   39.0790   50.4671   41.0129 H   0  0  0  0  0  0  0  0  0  0  0  0
   40.9509   49.0355   41.3225 H   0  0  0  0  0  0  0  0  0  0  0  0
   42.9920   49.4882   40.1978 H   0  0  0  0  0  0  0  0  0  0  0  0
  1  2  2  0  0  0  0
  1  8  1  0  0  0  0
  2  3  1  0  0  0  0
  2 36  1  0  0  0  0
  3  4  2  0  0  0  0
  3  9  1  0  0  0  0
  4  5  1  0  0  0  0
  4 10  1  0  0  0  0
  5  6  2  0  0  0  0
  5 37  1  0  0  0  0
  6  1  1  0  0  0  0
  6  7  1  0  0  0  0
 10 38  1  0  0  0  0
 10 39  1  0  0  0  0
 11 10  1  0  0  0  0
 11 12  1  0  0  0  0
 11 13  1  0  0  0  0
 11 40  1  6  0  0  0
 12 14  1  0  0  0  0
 12 41  1  0  0  0  0
 12 42  1  0  0  0  0
 13 43  1  0  0  0  0
 13 44  1  0  0  0  0
 13 45  1  0  0  0  0
 14 15  1  0  0  0  0
 14 28  2  0  0  0  0
 15 16  1  0  0  0  0
 15 18  1  0  0  0  0
 16 17  1  0  0  0  0
 16 46  1  0  0  0  0
 16 47  1  0  0  0  0
 17 21  1  0  0  0  0
 17 48  1  0  0  0  0
 17 49  1  0  0  0  0
 18 29  1  0  0  0  0
 18 50  1  1  0  0  0
 19 20  2  0  0  0  0
 20 18  1  0  0  0  0
 20 21  1  0  0  0  0
 21 22  1  0  0  0  0
 22 23  2  0  0  0  0
 22 24  1  0  0  0  0
 23 19  1  0  0  0  0
 24 25  1  0  0  0  0
 24 26  1  0  0  0  0
 24 27  1  0  0  0  0
 29 30  1  0  0  0  0
 29 51  1  0  0  0  0
 29 52  1  0  0  0  0
 30 31  2  0  0  0  0
 31 32  1  0  0  0  0
 31 53  1  0  0  0  0
 32 33  2  0  0  0  0
 32 54  1  0  0  0  0
 33 34  1  0  0  0  0
 33 55  1  0  0  0  0
 34 35  2  0  0  0  0
 34 56  1  0  0  0  0
 35 30  1  0  0  0  0
 35 57  1  0  0  0  0
M  CHG  1  13   1
M  END
>  <Mean(IC50 fixed2)>
70.33

>  <First(BindingDB Ligand Name)>
CHEMBL539350

>  <Concatenate(Target Name Assigned by Curator or DataSource)>
Dipeptidyl Peptidase IV (DPP-IV), Dipeptidyl Peptidase IV (DPP-IV)

>  <First(Target Source Organism According to Curator or DataSource)>
Homo sapiens

>  <First(Curation/DataSource)>
ChEMBL

>  <First(Article DOI)>
10.1021/jm070330v

>  <Mean(PMID)>
18201067

>  <First(Authors)>
Kim, D; Kowalchick, JE; Brockunier, LL; Parmee, ER; Eiermann, GJ; Fisher, MH; He, H; Leiting, B; Lyons, K; Scapin, G; Patel, SB; Petrov, A; Pryor, KD; Roy, RS; Wu, JK; Zhang, X; Wyvratt, MJ; Zhang, BB; Zhu, L; Thornberry, NA; Weber, AE

>  <First(Institution)>
Merck Research Laboratories<span class=m1fontSize>Curated by</span> <a href=http://www.ebi.ac.uk/chembl/>ChEMBL</a>

>  <First(Link to Ligand in BindingDB)>
http://www.bindingdb.org/bind/chemsearch/marvin/MolStructure.jsp?monomerid=50232510

>  <First(Link to Ligand-Target Pair in BindingDB)>
http://www.bindingdb.org/jsp/dbsearch/PrimarySearch_ki.jsp?energyterm=kJ/mole&tag=r21&monomerid=50232510&enzyme=Dipeptidyl+Peptidase+IV+%28DPP-IV%29&column=ki&startPg=0&Increment=50&submit=Search

>  <Mean(PubChem CID)>
44445052

>  <Mean(PubChem SID)>
104055522

>  <First(ZINC ID of Ligand)>
ZINC28967893

>  <Concatenate*(UniProt (SwissProt) Entry Name of Target Chain)>
DPP4_HUMAN, DPP4_HUMAN

>  <Mean(Number of Protein Chains in Target (>1 implies a multichain complex))>
1

>  <Median(pIC50)>
9.18

>  <Journal>
JMedChem2008

>  <Activity Classes>
9.18

>  <Conformer_cresset>
1

>  <Similarity_cresset>
0.982

>  <Favorite_cresset>
false

>  <Activity (Median(pIC50))_cresset>
9.18

>  <LE (Median(pIC50))_cresset>
0.367

>  <LipE (Median(pIC50))_cresset>
4.6

>  <Tags_cresset>
training

>  <Confs_cresset>
2

>  <Conf#_cresset>
1

>  <Alns_cresset>
2

>  <MW_cresset>
498.5

>  <#Atoms_cresset>
35

>  <SlogP_cresset>
4.6

>  <TPSA_cresset>
78.7

>  <Flexibility_cresset>
6.9

>  <#RB_cresset>
8

>  <Rof5_cresset>
0

>  <Filename_cresset>
bindingdb_similar_1x70_processed.sdf

>  <Notes_cresset>
42b

>  <Selected Alignment_cresset>
true

>  <Alignment Cluster Centre_cresset>
true

>  <_cresset_fieldpoints>
-5      40.963299      48.609024      37.725796    -10.9261
-5      32.796143      45.957340      35.654133     -2.6907
-5      47.846123      49.889542      37.175636    -11.9029
-5      42.044910      52.359570      42.228691     -3.4077
-6      35.651581      50.613991      33.277218      5.4286
-6      42.050323      53.435417      32.684734     11.7757
-6      42.570774      47.553391      42.152817      1.8596
-7      35.372353      50.399040      33.227036     -2.5503
-7      37.078209      49.401566      32.891876     -2.4249
-7      36.993317      49.527836      39.552158     -2.8712
-7      39.201271      54.246937      37.490807     -2.6679
-7      39.945881      54.381512      33.530369     -1.8941
-7      40.163025      50.300991      32.102451     -1.5199
-7      44.527443      54.121422      31.677612     -1.5871
-7      41.936527      53.297699      32.258102     -1.6949
-7      40.919628      54.754780      37.160847     -2.3800
-7      42.549431      54.946709      38.388790     -2.0318
-7      45.709515      54.296608      37.192719     -2.6916
-7      47.239029      48.709194      35.610470     -1.5256
-7      49.053612      54.152367      31.143507     -1.1104
-7      43.125114      49.609306      34.051991     -2.8164
-7      42.345444      52.793068      42.251095     -1.8330
-7      40.378208      48.246960      37.810246     -3.2704
-7      44.872814      48.359581      38.791477     -2.0722
-8      35.714058      49.795364      36.371117      7.2681
-8      41.125011      50.923683      39.883282      7.1976
-8      39.522335      51.324780      35.954197      4.9890
-8      37.016003      51.180161      36.650326      5.6327
-8      43.466862      53.290985      34.740501      3.8127
-8      47.364563      52.602791      33.827713      5.6580

$$$$
