@<TRIPOS>MOLECULE
RR  bindingdb_similar_1x70_processed:67
 57 60 0 0 0
SMALL
GASTEIGER

@<TRIPOS>ATOM
      1 C          34.4448   49.2631   36.3130 C.ar    1  LIG1        0.1611
      2 C          34.6248   50.5806   36.6669 C.ar    1  LIG1        0.0119
      3 C          35.8934   51.1165   36.7235 C.ar    1  LIG1        0.1296
      4 C          36.9925   50.3335   36.4283 C.ar    1  LIG1       -0.0040
      5 C          36.8078   49.0122   36.0820 C.ar    1  LIG1       -0.0175
      6 C          35.5408   48.4756   36.0201 C.ar    1  LIG1        0.1588
      7 F          35.3775   47.1907   35.6725 F       1  LIG1       -0.2025
      8 F          33.2065   48.7523   36.2536 F       1  LIG1       -0.2024
      9 F          36.0442   52.4043   37.0659 F       1  LIG1       -0.2051
     10 C          38.4037   50.9068   36.4676 C.3     1  LIG1        0.0187
     11 C          39.0774   51.0737   35.0867 C.3     1  LIG1       -0.0118
     12 C          40.4571   51.7540   35.2042 C.3     1  LIG1        0.0673
     13 N          38.2203   51.9271   34.1960 N.4     1  LIG1        0.2213
     14 C          41.4854   50.9711   35.9956 C.2     1  LIG1        0.2216
     15 N          42.6683   51.6023   36.1683 N.am    1  LIG1       -0.2892
     16 C          43.0244   52.8950   35.5246 C.3     1  LIG1        0.0335
     17 C          44.2448   52.6922   34.6018 C.3     1  LIG1        0.0422
     18 C          43.6794   50.9721   37.0490 C.3     1  LIG1        0.0898
     19 N          46.1783   50.6652   36.7968 N.ar    1  LIG1       -0.1321
     20 C          45.0458   51.1735   36.4238 C.ar    1  LIG1        0.1547
     21 N          45.2816   51.9482   35.3315 N.ar    1  LIG1       -0.3046
     22 C          46.6138   51.8782   35.0454 C.ar    1  LIG1        0.2377
     23 N          47.1518   51.1036   35.9386 N.ar    1  LIG1       -0.1250
     24 C          47.3430   52.5561   33.8971 C.3     1  LIG1        0.4524
     25 F          46.8875   52.0887   32.6688 F       1  LIG1       -0.1632
     26 F          47.1662   53.9355   33.9113 F       1  LIG1       -0.1632
     27 F          48.7121   52.3171   33.9472 F       1  LIG1       -0.1632
     28 O          41.2356   49.8586   36.4402 O.2     1  LIG1       -0.2754
     29 C          43.6190   51.4751   38.5083 C.3     1  LIG1       -0.0019
     30 C          42.3132   51.1861   39.2352 C.ar    1  LIG1       -0.0450
     31 C          42.2065   50.0928   40.0676 C.ar    1  LIG1       -0.0558
     32 C          41.0240   49.8292   40.7199 C.ar    1  LIG1       -0.0262
     33 C          39.9383   50.6592   40.5417 C.ar    1  LIG1        0.1234
     34 C          40.0418   51.7553   39.7135 C.ar    1  LIG1       -0.0262
     35 C          41.2264   52.0172   39.0656 C.ar    1  LIG1       -0.0558
     36 F          38.7839   50.4020   41.1723 F       1  LIG1       -0.2055
     37 H          33.8326   51.1517   36.8814 H       1  LIG1        0.0676
     38 H          37.5995   48.4399   35.8690 H       1  LIG1        0.0651
     39 H          38.4116   51.9716   37.0204 H       1  LIG1        0.0369
     40 H          39.0745   50.1597   37.1222 H       1  LIG1        0.0369
     41 H          39.2055   49.9970   34.5733 H       1  LIG1        0.0858
     42 H          40.2723   52.8199   35.7236 H       1  LIG1        0.0414
     43 H          40.8667   51.8902   34.0841 H       1  LIG1        0.0414
     44 H          37.3908   51.5672   34.0885 H       1  LIG1        0.1997
     45 H          38.5806   52.0161   33.3641 H       1  LIG1        0.1997
     46 H          38.1110   52.7635   34.5413 H       1  LIG1        0.1997
     47 H          42.1803   53.4405   34.8744 H       1  LIG1        0.0482
     48 H          43.3507   53.6612   36.3877 H       1  LIG1        0.0482
     49 H          44.6611   53.7643   34.2624 H       1  LIG1        0.0508
     50 H          43.9125   52.0657   33.6334 H       1  LIG1        0.0508
     51 H          43.4790   49.7893   37.0708 H       1  LIG1        0.0585
     52 H          44.5187   50.9544   39.1093 H       1  LIG1        0.0335
     53 H          43.8180   52.6584   38.5216 H       1  LIG1        0.0335
     54 H          42.9922   49.4879   40.1976 H       1  LIG1        0.0621
     55 H          40.9521   49.0346   41.3227 H       1  LIG1        0.0646
     56 H          39.2560   52.3601   39.5834 H       1  LIG1        0.0646
     57 H          41.2990   52.8136   38.4651 H       1  LIG1        0.0621
@<TRIPOS>BOND
     1     1     2   ar
     2     1     8    1
     3     2     3   ar
     4     2    37    1
     5     3     4   ar
     6     3     9    1
     7     4     5   ar
     8     4    10    1
     9     5     6   ar
    10     5    38    1
    11     6     1   ar
    12     6     7    1
    13    10    39    1
    14    10    40    1
    15    11    10    1
    16    11    12    1
    17    11    13    1
    18    11    41    1
    19    12    14    1
    20    12    42    1
    21    12    43    1
    22    13    44    1
    23    13    45    1
    24    13    46    1
    25    14    15   am
    26    14    28    2
    27    15    16    1
    28    16    17    1
    29    16    47    1
    30    16    48    1
    31    17    21    1
    32    17    49    1
    33    17    50    1
    34    18    15    1
    35    18    20    1
    36    18    29    1
    37    18    51    1
    38    19    20   ar
    39    20    21   ar
    40    21    22   ar
    41    22    23   ar
    42    22    24    1
    43    23    19   ar
    44    24    25    1
    45    24    26    1
    46    24    27    1
    47    29    30    1
    48    29    52    1
    49    29    53    1
    50    30    31   ar
    51    31    32   ar
    52    31    54    1
    53    32    33   ar
    54    32    55    1
    55    33    34   ar
    56    33    36    1
    57    34    35   ar
    58    34    56    1
    59    35    30   ar
    60    35    57    1
