@<TRIPOS>MOLECULE
bindingdb_similar_1x70_processed:2
 41 43 0 0 0
SMALL
GASTEIGER

@<TRIPOS>ATOM
      1 C          34.4437   49.2644   36.3104 C.ar    1  LIG1        0.1611
      2 C          34.6244   50.5822   36.6632 C.ar    1  LIG1        0.0119
      3 C          35.8935   51.1170   36.7220 C.ar    1  LIG1        0.1296
      4 C          36.9926   50.3328   36.4296 C.ar    1  LIG1       -0.0040
      5 C          36.8064   49.0123   36.0817 C.ar    1  LIG1       -0.0175
      6 C          35.5396   48.4762   36.0189 C.ar    1  LIG1        0.1588
      7 C          38.4065   50.9009   36.4699 C.3     1  LIG1        0.0187
      8 C          39.0764   51.0710   35.0866 C.3     1  LIG1       -0.0118
      9 C          40.4565   51.7496   35.2088 C.3     1  LIG1        0.0673
     10 N          38.2200   51.9265   34.1939 N.4     1  LIG1        0.2213
     11 C          41.4865   50.9682   36.0022 C.2     1  LIG1        0.2214
     12 N          42.6678   51.6032   36.1736 N.am    1  LIG1       -0.2922
     13 O          41.2366   49.8551   36.4464 O.2     1  LIG1       -0.2754
     14 C          43.0269   52.8950   35.5284 C.3     1  LIG1        0.0348
     15 C          44.2399   52.7076   34.5881 C.3     1  LIG1        0.0593
     16 C          43.6867   50.9857   37.0503 C.3     1  LIG1        0.0742
     17 C          45.0499   51.1759   36.4188 C.ar    1  LIG1        0.1449
     18 N          45.2501   51.9462   35.3290 N.ar    1  LIG1       -0.2462
     19 N          46.5644   51.8769   35.0098 N.ar    1  LIG1       -0.1581
     20 C          47.1042   51.0995   35.9064 C.ar    1  LIG1        0.1383
     21 N          46.1979   50.6497   36.7990 N.ar    1  LIG1       -0.2178
     22 F          36.0441   52.4053   37.0637 F       1  LIG1       -0.2051
     23 F          33.2052   48.7541   36.2498 F       1  LIG1       -0.2024
     24 F          35.3762   47.1913   35.6718 F       1  LIG1       -0.2025
     25 H          33.8322   51.1543   36.8756 H       1  LIG1        0.0676
     26 H          37.5980   48.4397   35.8683 H       1  LIG1        0.0651
     27 H          38.4146   51.9647   37.0253 H       1  LIG1        0.0369
     28 H          39.0745   50.1525   37.1278 H       1  LIG1        0.0369
     29 H          39.2117   49.9918   34.5797 H       1  LIG1        0.0858
     30 H          40.2728   52.8158   35.7282 H       1  LIG1        0.0414
     31 H          40.8723   51.8868   34.0914 H       1  LIG1        0.0414
     32 H          37.3990   51.5581   34.0648 H       1  LIG1        0.1997
     33 H          38.5866   52.0405   33.3690 H       1  LIG1        0.1997
     34 H          38.0871   52.7549   34.5467 H       1  LIG1        0.1997
     35 H          42.1761   53.4535   34.8978 H       1  LIG1        0.0483
     36 H          43.3630   53.6386   36.4079 H       1  LIG1        0.0483
     37 H          43.9069   52.0804   33.6212 H       1  LIG1        0.0525
     38 H          44.6774   53.7737   34.2531 H       1  LIG1        0.0525
     39 H          43.4756   49.8100   37.1625 H       1  LIG1        0.0545
     40 H          43.6574   51.5019   38.1331 H       1  LIG1        0.0545
     41 H          48.0747   50.8622   35.9284 H       1  LIG1        0.1066
@<TRIPOS>BOND
     1     1     2   ar
     2     1    23    1
     3     2     3   ar
     4     2    25    1
     5     3     4   ar
     6     3    22    1
     7     4     5   ar
     8     4     7    1
     9     5     6   ar
    10     5    26    1
    11     6     1   ar
    12     6    24    1
    13     7    27    1
    14     7    28    1
    15     8     7    1
    16     8     9    1
    17     8    10    1
    18     8    29    1
    19     9    11    1
    20     9    30    1
    21     9    31    1
    22    10    32    1
    23    10    33    1
    24    10    34    1
    25    11    12   am
    26    11    13    2
    27    12    14    1
    28    12    16    1
    29    14    15    1
    30    14    35    1
    31    14    36    1
    32    15    18    1
    33    15    37    1
    34    15    38    1
    35    16    39    1
    36    16    40    1
    37    17    16    1
    38    17    18   ar
    39    18    19   ar
    40    19    20   ar
    41    20    21   ar
    42    20    41    1
    43    21    17   ar
