bindingdb_similar_1x70_processed:58
 OpenBabel04261912203D

 57 59  0  0  1  0  0  0  0  0999 V2000
   34.4363   49.4343   36.4518 C   0  0  0  0  0  0  0  0  0  0  0  0
   34.6024   50.7953   36.5689 C   0  0  0  0  0  0  0  0  0  0  0  0
   35.8667   51.3440   36.5500 C   0  0  0  0  0  0  0  0  0  0  0  0
   36.9761   50.5315   36.4163 C   0  0  0  0  0  0  0  0  0  0  0  0
   36.8045   49.1687   36.3011 C   0  0  0  0  0  0  0  0  0  0  0  0
   35.5421   48.6180   36.3165 C   0  0  0  0  0  0  0  0  0  0  0  0
   38.3827   51.1172   36.3871 C   0  0  0  0  0  0  0  0  0  0  0  0
   39.0174   51.2156   34.9818 C   0  0  1  0  0  0  0  0  0  0  0  0
   38.1926   52.0994   34.0885 N   0  3  0  0  0  0  0  0  0  0  0  0
   40.4444   51.7971   35.0659 C   0  0  0  0  0  0  0  0  0  0  0  0
   41.4348   50.8657   35.7403 C   0  0  0  0  0  0  0  0  0  0  0  0
   41.1179   49.7236   36.0465 O   0  0  0  0  0  0  0  0  0  0  0  0
   42.6576   51.3944   35.9740 N   0  0  0  0  0  0  0  0  0  0  0  0
   43.0594   52.7696   35.5748 C   0  0  0  0  0  0  0  0  0  0  0  0
   44.4276   52.8228   34.8589 C   0  0  0  0  0  0  0  0  0  0  0  0
   43.6303   50.5784   36.7319 C   0  0  0  0  0  0  0  0  0  0  0  0
   45.0537   50.9216   36.3445 C   0  0  0  0  0  0  0  0  0  0  0  0
   45.4008   51.9674   35.5524 N   0  0  0  0  0  0  0  0  0  0  0  0
   46.7647   51.9666   35.4387 C   0  0  0  0  0  0  0  0  0  0  0  0
   47.2014   50.9448   36.1202 N   0  0  0  0  0  0  0  0  0  0  0  0
   46.1413   50.3018   36.6877 N   0  0  0  0  0  0  0  0  0  0  0  0
   35.3921   47.2906   36.1983 F   0  0  0  0  0  0  0  0  0  0  0  0
   36.0031   52.6734   36.6633 F   0  0  0  0  0  0  0  0  0  0  0  0
   47.6240   52.9177   34.6872 C   0  0  0  0  0  0  0  0  0  0  0  0
   33.2021   48.9095   36.4685 F   0  0  0  0  0  0  0  0  0  0  0  0
   48.5140   52.4075   34.0158 O   0  0  0  0  0  0  0  0  0  0  0  0
   47.4068   54.2424   34.8187 N   0  0  0  0  0  0  0  0  0  0  0  0
   48.2316   55.2426   34.1106 C   0  0  0  0  0  0  0  0  0  0  0  0
   47.6225   56.6218   34.4168 C   0  0  0  0  0  0  0  0  0  0  0  0
   48.2495   55.0808   32.5798 C   0  0  0  0  0  0  0  0  0  0  0  0
   49.6765   55.2474   34.6391 C   0  0  0  0  0  0  0  0  0  0  0  0
   39.0702   50.1189   34.4977 H   0  0  0  0  0  0  0  0  0  0  0  0
   33.8033   51.3884   36.6670 H   0  0  0  0  0  0  0  0  0  0  0  0
   37.6032   48.5750   36.2032 H   0  0  0  0  0  0  0  0  0  0  0  0
   39.0867   50.4251   37.0693 H   0  0  0  0  0  0  0  0  0  0  0  0
   38.3792   52.2112   36.8809 H   0  0  0  0  0  0  0  0  0  0  0  0
   37.3390   51.7956   34.0063 H   0  0  0  0  0  0  0  0  0  0  0  0
   38.5323   52.1495   33.2458 H   0  0  0  0  0  0  0  0  0  0  0  0
   38.1419   52.9503   34.4065 H   0  0  0  0  0  0  0  0  0  0  0  0
   40.3723   52.8321   35.6690 H   0  0  0  0  0  0  0  0  0  0  0  0
   40.8146   51.9855   33.9399 H   0  0  0  0  0  0  0  0  0  0  0  0
   42.3118   53.3408   34.8344 H   0  0  0  0  0  0  0  0  0  0  0  0
   43.1499   53.4174   36.5808 H   0  0  0  0  0  0  0  0  0  0  0  0
   44.2880   52.3986   33.7451 H   0  0  0  0  0  0  0  0  0  0  0  0
   44.7725   53.9678   34.7936 H   0  0  0  0  0  0  0  0  0  0  0  0
   43.4384   49.4153   36.5079 H   0  0  0  0  0  0  0  0  0  0  0  0
   43.4847   50.7820   37.9056 H   0  0  0  0  0  0  0  0  0  0  0  0
   46.7778   54.5218   35.3664 H   0  0  0  0  0  0  0  0  0  0  0  0
   47.5923   56.7893   35.6046 H   0  0  0  0  0  0  0  0  0  0  0  0
   46.5065   56.6686   33.9784 H   0  0  0  0  0  0  0  0  0  0  0  0
   48.2850   57.4856   33.9118 H   0  0  0  0  0  0  0  0  0  0  0  0
   48.7879   54.0545   32.2708 H   0  0  0  0  0  0  0  0  0  0  0  0
   48.8540   55.9950   32.0910 H   0  0  0  0  0  0  0  0  0  0  0  0
   47.1232   55.0839   32.1660 H   0  0  0  0  0  0  0  0  0  0  0  0
   49.6649   55.4091   35.8281 H   0  0  0  0  0  0  0  0  0  0  0  0
   50.2140   54.2060   34.3836 H   0  0  0  0  0  0  0  0  0  0  0  0
   50.2876   56.1416   34.1227 H   0  0  0  0  0  0  0  0  0  0  0  0
  1  2  2  0  0  0  0
  1 25  1  0  0  0  0
  2  3  1  0  0  0  0
  2 33  1  0  0  0  0
  3  4  2  0  0  0  0
  3 23  1  0  0  0  0
  4  5  1  0  0  0  0
  4  7  1  0  0  0  0
  5  6  2  0  0  0  0
  5 34  1  0  0  0  0
  6  1  1  0  0  0  0
  6 22  1  0  0  0  0
  7 35  1  0  0  0  0
  7 36  1  0  0  0  0
  8  7  1  0  0  0  0
  8  9  1  0  0  0  0
  8 10  1  0  0  0  0
  8 32  1  6  0  0  0
  9 37  1  0  0  0  0
  9 38  1  0  0  0  0
  9 39  1  0  0  0  0
 10 11  1  0  0  0  0
 10 40  1  0  0  0  0
 10 41  1  0  0  0  0
 11 12  2  0  0  0  0
 11 13  1  0  0  0  0
 13 14  1  0  0  0  0
 13 16  1  0  0  0  0
 14 15  1  0  0  0  0
 14 42  1  0  0  0  0
 14 43  1  0  0  0  0
 15 18  1  0  0  0  0
 15 44  1  0  0  0  0
 15 45  1  0  0  0  0
 16 46  1  0  0  0  0
 16 47  1  0  0  0  0
 17 16  1  0  0  0  0
 17 18  1  0  0  0  0
 18 19  1  0  0  0  0
 19 20  2  0  0  0  0
 19 24  1  0  0  0  0
 20 21  1  0  0  0  0
 21 17  2  0  0  0  0
 24 26  2  0  0  0  0
 24 27  1  0  0  0  0
 27 28  1  0  0  0  0
 27 48  1  0  0  0  0
 28 29  1  0  0  0  0
 28 30  1  0  0  0  0
 28 31  1  0  0  0  0
 29 49  1  0  0  0  0
 29 50  1  0  0  0  0
 29 51  1  0  0  0  0
 30 52  1  0  0  0  0
 30 53  1  0  0  0  0
 30 54  1  0  0  0  0
 31 55  1  0  0  0  0
 31 56  1  0  0  0  0
 31 57  1  0  0  0  0
M  CHG  1   9   1
M  END
>  <Mean(IC50 fixed2)>
234

>  <First(BindingDB Ligand Name)>
CHEMBL233891

>  <Concatenate(Target Name Assigned by Curator or DataSource)>
Dipeptidyl Peptidase IV (DPP-IV)

>  <First(Target Source Organism According to Curator or DataSource)>
Homo sapiens

>  <First(Curation/DataSource)>
ChEMBL

>  <First(Article DOI)>
10.1016/j.bmcl.2007.03.098

>  <Mean(PMID)>
17434732

>  <First(Authors)>
Kim, D; Kowalchick, JE; Edmondson, SD; Mastracchio, A; Xu, J; Eiermann, GJ; Leiting, B; Wu, JK; Pryor, KD; Patel, RA; He, H; Lyons, KA; Thornberry, NA; Weber, AE

>  <First(Institution)>
Merck Research Laboratories<span class=m1fontSize>Curated by</span> <a href=http://www.ebi.ac.uk/chembl/>ChEMBL</a>

>  <First(Link to Ligand in BindingDB)>
http://www.bindingdb.org/bind/chemsearch/marvin/MolStructure.jsp?monomerid=50210671

>  <First(Link to Ligand-Target Pair in BindingDB)>
http://www.bindingdb.org/jsp/dbsearch/PrimarySearch_ki.jsp?energyterm=kJ/mole&tag=r21&monomerid=50210671&enzyme=Dipeptidyl+Peptidase+IV+%28DPP-IV%29&column=ki&startPg=0&Increment=50&submit=Search

>  <Mean(PubChem CID)>
10026124

>  <Mean(PubChem SID)>
104087158

>  <First(ZINC ID of Ligand)>
ZINC03962164

>  <Concatenate*(UniProt (SwissProt) Entry Name of Target Chain)>
DPP4_HUMAN

>  <Mean(Number of Protein Chains in Target (>1 implies a multichain complex))>
1

>  <Median(pIC50)>
6.63078414258986

>  <Journal>
BiorgMedChemLett2007

>  <Activity Classes>
6.63078414258986

>  <Conformer_cresset>
16

>  <Similarity_cresset>
0.736

>  <Favorite_cresset>
false

>  <Activity (Median(pIC50))_cresset>
6.63

>  <LE (Median(pIC50))_cresset>
0.299

>  <LipE (Median(pIC50))_cresset>
4.3

>  <Tags_cresset>
training

>  <Confs_cresset>
18

>  <Conf#_cresset>
16

>  <Alns_cresset>
10

>  <MW_cresset>
439.5

>  <#Atoms_cresset>
31

>  <SlogP_cresset>
2.3

>  <TPSA_cresset>
107.8

>  <Flexibility_cresset>
5.1

>  <#RB_cresset>
7

>  <Rof5_cresset>
0

>  <Filename_cresset>
bindingdb_similar_1x70_processed.sdf

>  <Notes_cresset>
51

>  <Selected Alignment_cresset>
true

>  <Alignment Cluster Centre_cresset>
true

>  <_cresset_fieldpoints>
-5      47.859287      49.359486      36.769981    -12.9716
-5      40.341084      48.102119      36.066387     -6.7114
-5      48.982731      50.526550      34.339554    -12.6096
-5      32.819160      46.047787      36.312523     -2.6951
-6      41.236298      55.107559      35.411842     11.4758
-6      45.138924      55.350842      36.356140     13.7760
-6      40.709373      54.577343      34.041935     11.5766
-6      35.645210      50.720558      33.275375      5.5490
-7      35.955681      49.721954      39.610943     -2.1454
-7      39.824001      47.895084      35.625271     -2.4482
-7      41.011753      52.235031      38.275227     -2.7980
-7      43.072227      50.069386      33.468327     -2.6182
-7      42.266193      53.173016      32.224133     -1.6116
-7      40.035732      50.317589      32.018059     -1.5061
-7      40.052879      54.537212      33.556915     -1.8148
-7      38.650379      54.652561      36.195835     -2.0509
-7      41.243721      48.720215      33.806652     -1.8519
-7      44.684189      55.315434      32.701912     -2.0283
-7      47.623123      50.849239      38.538147     -1.2832
-7      47.956150      54.439987      37.531784     -2.2308
-7      49.681091      52.871357      36.840298     -1.7907
-7      47.338665      48.605576      35.422424     -1.2857
-7      45.776146      47.902203      37.395130     -1.0544
-7      35.770817      50.034138      33.211807     -2.6676
-7      50.621029      52.327076      32.707939     -1.5617
-7      45.540550      54.249710      37.559078     -2.3980
-7      46.881248      57.848576      31.469852     -1.3965
-7      50.313156      58.081673      32.432625     -1.4459
-7      50.012520      58.209255      35.997700     -1.3950
-7      51.446049      54.836533      31.920113     -1.4248
-7      46.328865      52.507641      32.078239     -2.3677
-8      35.701160      49.980263      36.432011      7.2626
-8      39.501289      51.422707      35.829571      4.9848
-8      43.584908      53.331261      34.960186      3.8096
-8      44.103310      50.330322      37.059456      2.7839
-8      43.726616      51.834705      36.042034      2.5922
-8      48.659576      55.852188      33.761093      5.4401
-8      36.987957      51.399563      36.484001      5.6224

$$$$
