Copy of bindingdb_similar_1x70_processed:46
 OpenBabel04261912203D

 47 49  0  0  1  0  0  0  0  0999 V2000
   34.3616   49.2218   36.2860 C   0  0  0  0  0  0  0  0  0  0  0  0
   34.5102   50.5448   36.6343 C   0  0  0  0  0  0  0  0  0  0  0  0
   35.7688   51.0977   36.7363 C   0  0  0  0  0  0  0  0  0  0  0  0
   36.8894   50.3269   36.4946 C   0  0  0  0  0  0  0  0  0  0  0  0
   36.7349   49.0017   36.1492 C   0  0  0  0  0  0  0  0  0  0  0  0
   35.4785   48.4480   36.0403 C   0  0  0  0  0  0  0  0  0  0  0  0
   35.3461   47.1605   35.6924 F   0  0  0  0  0  0  0  0  0  0  0  0
   33.1334   48.6937   36.1843 F   0  0  0  0  0  0  0  0  0  0  0  0
   35.8875   52.3909   37.0697 F   0  0  0  0  0  0  0  0  0  0  0  0
   38.2915   50.9173   36.5829 C   0  0  0  0  0  0  0  0  0  0  0  0
   38.9860   51.1087   35.2165 C   0  0  2  0  0  0  0  0  0  0  0  0
   40.3511   51.8120   35.3629 C   0  0  0  0  0  0  0  0  0  0  0  0
   38.1269   51.9479   34.3077 N   0  3  0  0  0  0  0  0  0  0  0  0
   41.4351   51.0101   36.0683 C   0  0  0  0  0  0  0  0  0  0  0  0
   42.6964   51.4680   35.8930 N   0  0  0  0  0  0  0  0  0  0  0  0
   43.0721   52.3511   34.7506 C   0  0  1  0  0  0  0  0  0  0  0  0
   44.4625   53.0271   34.8161 C   0  0  0  0  0  0  0  0  0  0  0  0
   43.7061   51.0104   36.8771 C   0  0  0  0  0  0  0  0  0  0  0  0
   46.1940   50.5611   36.6764 N   0  0  0  0  0  0  0  0  0  0  0  0
   45.1085   51.1870   36.3451 C   0  0  0  0  0  0  0  0  0  0  0  0
   45.4206   52.0641   35.3644 N   0  0  0  0  0  0  0  0  0  0  0  0
   46.7391   51.9118   35.0608 C   0  0  0  0  0  0  0  0  0  0  0  0
   47.2100   51.0137   35.8732 N   0  0  0  0  0  0  0  0  0  0  0  0
   47.4999   52.6114   33.9500 C   0  0  0  0  0  0  0  0  0  0  0  0
   47.3184   53.9897   33.9801 F   0  0  0  0  0  0  0  0  0  0  0  0
   47.0513   52.1578   32.7140 F   0  0  0  0  0  0  0  0  0  0  0  0
   48.8665   52.3620   34.0137 F   0  0  0  0  0  0  0  0  0  0  0  0
   41.1582   50.0509   36.7763 O   0  0  0  0  0  0  0  0  0  0  0  0
   43.0595   51.5181   33.4490 C   0  0  0  0  0  0  0  0  0  0  0  0
   33.7030   51.1074   36.8113 H   0  0  0  0  0  0  0  0  0  0  0  0
   37.5415   48.4384   35.9709 H   0  0  0  0  0  0  0  0  0  0  0  0
   38.2658   51.9821   37.1351 H   0  0  0  0  0  0  0  0  0  0  0  0
   38.9535   50.1777   37.2565 H   0  0  0  0  0  0  0  0  0  0  0  0
   39.1540   50.0351   34.7073 H   0  0  0  0  0  0  0  0  0  0  0  0
   40.1962   52.8387   35.9637 H   0  0  0  0  0  0  0  0  0  0  0  0
   40.6342   52.0752   34.2313 H   0  0  0  0  0  0  0  0  0  0  0  0
   37.3109   51.5701   34.1773 H   0  0  0  0  0  0  0  0  0  0  0  0
   38.4928   52.0565   33.4818 H   0  0  0  0  0  0  0  0  0  0  0  0
   37.9815   52.7787   34.6496 H   0  0  0  0  0  0  0  0  0  0  0  0
   42.3076   53.2722   34.6660 H   0  0  0  0  0  0  0  0  0  0  0  0
   44.8088   53.4058   33.7312 H   0  0  0  0  0  0  0  0  0  0  0  0
   44.4233   53.9619   35.5676 H   0  0  0  0  0  0  0  0  0  0  0  0
   43.5175   49.8530   37.1282 H   0  0  0  0  0  0  0  0  0  0  0  0
   43.5880   51.6558   37.8817 H   0  0  0  0  0  0  0  0  0  0  0  0
   44.0642   50.8665   33.3717 H   0  0  0  0  0  0  0  0  0  0  0  0
   42.1371   50.7535   33.4017 H   0  0  0  0  0  0  0  0  0  0  0  0
   43.0093   52.2675   32.5134 H   0  0  0  0  0  0  0  0  0  0  0  0
  1  2  2  0  0  0  0
  1  8  1  0  0  0  0
  2  3  1  0  0  0  0
  2 30  1  0  0  0  0
  3  4  2  0  0  0  0
  3  9  1  0  0  0  0
  4  5  1  0  0  0  0
  4 10  1  0  0  0  0
  5  6  2  0  0  0  0
  5 31  1  0  0  0  0
  6  1  1  0  0  0  0
  6  7  1  0  0  0  0
 10 32  1  0  0  0  0
 10 33  1  0  0  0  0
 11 10  1  0  0  0  0
 11 12  1  0  0  0  0
 11 13  1  0  0  0  0
 11 34  1  6  0  0  0
 12 14  1  0  0  0  0
 12 35  1  0  0  0  0
 12 36  1  0  0  0  0
 13 37  1  0  0  0  0
 13 38  1  0  0  0  0
 13 39  1  0  0  0  0
 14 15  1  0  0  0  0
 14 28  2  0  0  0  0
 15 16  1  0  0  0  0
 15 18  1  0  0  0  0
 16 17  1  0  0  0  0
 16 29  1  0  0  0  0
 16 40  1  6  0  0  0
 17 21  1  0  0  0  0
 17 41  1  0  0  0  0
 17 42  1  0  0  0  0
 18 43  1  0  0  0  0
 18 44  1  0  0  0  0
 19 20  2  0  0  0  0
 20 18  1  0  0  0  0
 20 21  1  0  0  0  0
 21 22  1  0  0  0  0
 22 23  2  0  0  0  0
 22 24  1  0  0  0  0
 23 19  1  0  0  0  0
 24 25  1  0  0  0  0
 24 26  1  0  0  0  0
 24 27  1  0  0  0  0
 29 45  1  0  0  0  0
 29 46  1  0  0  0  0
 29 47  1  0  0  0  0
M  CHG  1  13   1
M  END
>  <Mean(IC50 fixed2)>
66.5

>  <First(BindingDB Ligand Name)>
CHEMBL557990

>  <Concatenate(Target Name Assigned by Curator or DataSource)>
Dipeptidyl Peptidase IV (DPP-IV), Dipeptidyl Peptidase IV (DPP-IV)

>  <First(Target Source Organism According to Curator or DataSource)>
Homo sapiens

>  <First(Curation/DataSource)>
ChEMBL

>  <First(Article DOI)>
10.1021/jm070330v

>  <Mean(PMID)>
18201067

>  <First(Authors)>
Kim, D; Kowalchick, JE; Brockunier, LL; Parmee, ER; Eiermann, GJ; Fisher, MH; He, H; Leiting, B; Lyons, K; Scapin, G; Patel, SB; Petrov, A; Pryor, KD; Roy, RS; Wu, JK; Zhang, X; Wyvratt, MJ; Zhang, BB; Zhu, L; Thornberry, NA; Weber, AE

>  <First(Institution)>
Merck Research Laboratories<span class=m1fontSize>Curated by</span> <a href=http://www.ebi.ac.uk/chembl/>ChEMBL</a>

>  <First(Link to Ligand in BindingDB)>
http://www.bindingdb.org/bind/chemsearch/marvin/MolStructure.jsp?monomerid=50232500

>  <First(Link to Ligand-Target Pair in BindingDB)>
http://www.bindingdb.org/jsp/dbsearch/PrimarySearch_ki.jsp?energyterm=kJ/mole&tag=r21&monomerid=50232500&enzyme=Dipeptidyl+Peptidase+IV+%28DPP-IV%29&column=ki&startPg=0&Increment=50&submit=Search

>  <Mean(PubChem CID)>
44445025.5

>  <Mean(PubChem SID)>
104055522.5

>  <First(ZINC ID of Ligand)>
ZINC28967321

>  <Concatenate*(UniProt (SwissProt) Entry Name of Target Chain)>
DPP4_HUMAN, DPP4_HUMAN

>  <Mean(Number of Protein Chains in Target (>1 implies a multichain complex))>
1

>  <Median(pIC50)>
7.38

>  <Journal>
JMedChem2008

>  <Activity Classes>
7.38

>  <Conformer_cresset>
1

>  <Similarity_cresset>
0.817

>  <Favorite_cresset>
false

>  <Activity (Median(pIC50))_cresset>
7.38

>  <LE (Median(pIC50))_cresset>
0.356

>  <LipE (Median(pIC50))_cresset>
4.2

>  <Tags_cresset>
training

>  <Confs_cresset>
2

>  <Conf#_cresset>
1

>  <Alns_cresset>
2

>  <MW_cresset>
422.4

>  <#Atoms_cresset>
29

>  <SlogP_cresset>
3.2

>  <TPSA_cresset>
78.7

>  <Flexibility_cresset>
4.9

>  <#RB_cresset>
6

>  <Rof5_cresset>
0

>  <Filename_cresset>
bindingdb_similar_1x70_processed.sdf

>  <Notes_cresset>
26 (R) manually fixed inverted activity

>  <Selected Alignment_cresset>
true

>  <Alignment Cluster Centre_cresset>
true

>  <_cresset_fieldpoints>
-5      47.794109      49.665554      37.039070    -12.2960
-5      41.144463      48.550793      37.796104     -7.1299
-5      32.777592      45.888699      35.613129     -2.5796
-6      35.855671      50.358013      33.194004      5.7098
-6      42.902710      54.796062      33.076794     11.1400
-6      40.991158      53.917648      32.974674     11.1740
-7      35.401234      50.314987      33.216412     -2.5551
-7      37.084251      49.410282      32.968269     -2.4573
-7      40.070385      48.058784      36.107964     -2.6401
-7      35.806873      48.983089      39.482956     -2.1427
-7      42.164932      53.874222      37.395744     -2.5884
-7      38.316753      54.483803      36.472851     -2.0315
-7      39.927532      54.399166      33.560226     -1.9354
-7      40.696274      51.797451      38.714363     -2.3988
-7      39.946716      50.430233      32.161167     -2.0244
-7      40.682568      53.914783      32.633755     -1.9225
-7      42.547127      48.619568      34.913361     -2.5249
-7      44.685886      53.898605      31.310944     -1.7629
-7      44.613232      55.956074      33.449051     -1.3508
-7      46.339359      54.251530      37.332802     -1.9504
-7      45.760799      49.057671      33.837879     -2.0344
-7      48.069710      51.552742      38.047176     -1.4581
-7      42.913998      54.930557      32.597813     -1.6445
-7      49.236824      54.228203      31.237135     -1.1147
-8      35.621346      49.773529      36.386120      7.2649
-8      39.376228      51.343445      36.051537      4.8971
-8      43.591721      52.469852      33.914997      4.8232
-8      36.888039      51.164112      36.694466      5.6136
-8      47.515217      52.652008      33.878689      5.6697
-8      44.212250      50.953442      37.289547      2.8253

$$$$
