@<TRIPOS>MOLECULE
bindingdb_similar_1x70_processed:61
 55 58 0 0 0
SMALL
GASTEIGER

@<TRIPOS>ATOM
      1 C          34.4822   49.2779   36.4141 C.ar    1  LIG1        0.1611
      2 C          34.6558   50.5906   36.7884 C.ar    1  LIG1        0.0119
      3 C          35.9174   51.1451   36.8080 C.ar    1  LIG1        0.1296
      4 C          37.0155   50.3859   36.4528 C.ar    1  LIG1       -0.0040
      5 C          36.8379   49.0691   36.0875 C.ar    1  LIG1       -0.0175
      6 C          35.5780   48.5137   36.0642 C.ar    1  LIG1        0.1588
      7 C          38.4196   50.9761   36.4413 C.3     1  LIG1        0.0187
      8 C          39.0379   51.1463   35.0339 C.3     1  LIG1       -0.0118
      9 C          40.4273   51.8139   35.1094 C.3     1  LIG1        0.0673
     10 C          41.4762   50.9886   35.8313 C.2     1  LIG1        0.2217
     11 N          42.6740   51.5963   35.9895 N.am    1  LIG1       -0.2869
     12 O          41.2255   49.8611   36.2361 O.2     1  LIG1       -0.2754
     13 C          43.0267   52.9080   35.3791 C.3     1  LIG1        0.0351
     14 C          44.2108   52.7401   34.4013 C.3     1  LIG1        0.0593
     15 C          43.7025   50.9112   36.8107 C.3     1  LIG1        0.1114
     16 C          45.0518   51.1390   36.1594 C.ar    1  LIG1        0.1512
     17 N          45.2347   51.9603   35.1045 N.ar    1  LIG1       -0.2453
     18 N          46.5540   51.9398   34.7920 N.ar    1  LIG1       -0.1453
     19 C          47.1099   51.1304   35.6507 C.ar    1  LIG1        0.2548
     20 N          46.2091   50.6155   36.5140 N.ar    1  LIG1       -0.2060
     21 F          36.0615   52.4278   37.1723 F       1  LIG1       -0.2051
     22 F          33.2501   48.7494   36.3894 F       1  LIG1       -0.2024
     23 F          35.4210   47.2336   35.6970 F       1  LIG1       -0.2025
     24 C          48.5924   50.8181   35.6902 C.3     1  LIG1        0.4540
     25 F          48.8383   49.5584   36.2261 F       1  LIG1       -0.1631
     26 F          49.1574   50.8488   34.4202 F       1  LIG1       -0.1631
     27 F          49.2708   51.7441   36.4742 F       1  LIG1       -0.1631
     28 C          43.6965   51.3337   38.2963 C.3     1  LIG1        0.0836
     29 C          42.3624   50.9473   38.9621 C.3     1  LIG1       -0.0128
     30 C          41.2769   52.0352   38.9447 C.3     1  LIG1       -0.0475
     31 C          42.0640   51.7552   40.2349 C.3     1  LIG1       -0.0475
     32 N          38.1513   51.9979   34.1672 N.4     1  LIG1        0.2213
     33 O          44.7711   50.6971   39.0066 O.3     1  LIG1       -0.3892
     34 H          39.1502   50.0653   34.5253 H       1  LIG1        0.0858
     35 H          43.4945   49.7301   36.7743 H       1  LIG1        0.0608
     36 H          43.8701   52.5187   38.3605 H       1  LIG1        0.0619
     37 H          33.8638   51.1448   37.0443 H       1  LIG1        0.0676
     38 H          37.6293   48.5143   35.8312 H       1  LIG1        0.0651
     39 H          38.4285   52.0423   36.9920 H       1  LIG1        0.0369
     40 H          39.1163   50.2369   37.0790 H       1  LIG1        0.0369
     41 H          40.2804   52.8655   35.6690 H       1  LIG1        0.0414
     42 H          40.7923   51.9808   33.9783 H       1  LIG1        0.0414
     43 H          42.1644   53.4907   34.7875 H       1  LIG1        0.0483
     44 H          43.3952   53.6304   36.2631 H       1  LIG1        0.0483
     45 H          43.8467   52.1390   33.4284 H       1  LIG1        0.0525
     46 H          44.6428   53.8132   34.0821 H       1  LIG1        0.0525
     47 H          41.9929   49.8060   38.9878 H       1  LIG1        0.0326
     48 H          40.1445   51.6380   38.9464 H       1  LIG1        0.0269
     49 H          41.5475   53.0622   38.3863 H       1  LIG1        0.0269
     50 H          41.4434   51.1829   41.0877 H       1  LIG1        0.0269
     51 H          42.8561   52.6033   40.5404 H       1  LIG1        0.0269
     52 H          37.3178   51.6434   34.0820 H       1  LIG1        0.1997
     53 H          38.4788   52.0913   33.3233 H       1  LIG1        0.1997
     54 H          38.0485   52.8354   34.5078 H       1  LIG1        0.1997
     55 H          44.7876   50.9763   39.9730 H       1  LIG1        0.2099
@<TRIPOS>BOND
     1     1     2   ar
     2     1    22    1
     3     2     3   ar
     4     2    37    1
     5     3     4   ar
     6     3    21    1
     7     4     5   ar
     8     4     7    1
     9     5     6   ar
    10     5    38    1
    11     6     1   ar
    12     6    23    1
    13     7     8    1
    14     7    39    1
    15     7    40    1
    16     8     9    1
    17     8    32    1
    18     8    34    1
    19     9    10    1
    20     9    41    1
    21     9    42    1
    22    10    11   am
    23    10    12    2
    24    11    13    1
    25    11    15    1
    26    13    14    1
    27    13    43    1
    28    13    44    1
    29    14    17    1
    30    14    45    1
    31    14    46    1
    32    15    28    1
    33    15    35    1
    34    16    15    1
    35    16    17   ar
    36    17    18   ar
    37    18    19   ar
    38    19    20   ar
    39    19    24    1
    40    20    16   ar
    41    24    25    1
    42    24    26    1
    43    24    27    1
    44    28    29    1
    45    28    33    1
    46    28    36    1
    47    29    31    1
    48    29    47    1
    49    30    29    1
    50    30    48    1
    51    30    49    1
    52    31    30    1
    53    31    50    1
    54    31    51    1
    55    32    52    1
    56    32    53    1
    57    32    54    1
    58    33    55    1
