@<TRIPOS>MOLECULE
bindingdb_similar_1x70_processed:1
 41 43 0 0 0
SMALL
GASTEIGER

@<TRIPOS>ATOM
      1 C          35.5405   48.4750   36.0203 C.ar    1  LIG1        0.1587
      2 C          34.4452   49.2637   36.3132 C.ar    1  LIG1        0.1584
      3 C          34.6271   50.5821   36.6667 C.ar    1  LIG1       -0.0233
      4 C          35.8963   51.1138   36.7222 C.ar    1  LIG1       -0.0555
      5 C          36.9911   50.3307   36.4272 C.ar    1  LIG1       -0.0392
      6 C          36.8077   49.0100   36.0813 C.ar    1  LIG1       -0.0202
      7 F          35.3774   47.1903   35.6732 F       1  LIG1       -0.2025
      8 F          33.2065   48.7524   36.2538 F       1  LIG1       -0.2025
      9 C          38.3983   50.9125   36.4663 C.3     1  LIG1        0.0160
     10 C          39.0743   51.0732   35.0848 C.3     1  LIG1       -0.0119
     11 C          40.4536   51.7540   35.2064 C.3     1  LIG1        0.0673
     12 C          41.4843   50.9702   35.9961 C.2     1  LIG1        0.2214
     13 N          38.2176   51.9278   34.1932 N.4     1  LIG1        0.2213
     14 O          41.2346   49.8577   36.4405 O.2     1  LIG1       -0.2754
     15 C          43.6810   50.9795   37.0448 C.3     1  LIG1        0.0746
     16 C          43.0296   52.8935   35.5292 C.3     1  LIG1        0.0332
     17 C          44.2496   52.6953   34.6013 C.3     1  LIG1        0.0416
     18 N          42.6664   51.6019   36.1688 N.am    1  LIG1       -0.2923
     19 C          45.0464   51.1712   36.4216 C.ar    1  LIG1        0.1508
     20 C          46.6094   51.8786   35.0482 C.ar    1  LIG1        0.1199
     21 N          45.2805   51.9464   35.3312 N.ar    1  LIG1       -0.3146
     22 N          46.1790   50.6641   36.7964 N.ar    1  LIG1       -0.1330
     23 N          47.1525   51.1043   35.9379 N.ar    1  LIG1       -0.1378
     24 H          33.8360   51.1550   36.8812 H       1  LIG1        0.0647
     25 H          36.0234   52.0728   36.9755 H       1  LIG1        0.0621
     26 H          37.6000   48.4388   35.8676 H       1  LIG1        0.0650
     27 H          38.3800   51.9856   37.0064 H       1  LIG1        0.0368
     28 H          39.0663   50.1723   37.1338 H       1  LIG1        0.0368
     29 H          39.2072   49.9946   34.5761 H       1  LIG1        0.0858
     30 H          40.2652   52.8157   35.7339 H       1  LIG1        0.0414
     31 H          40.8669   51.8980   34.0885 H       1  LIG1        0.0414
     32 H          37.3976   51.5571   34.0731 H       1  LIG1        0.1997
     33 H          38.5845   52.0337   33.3689 H       1  LIG1        0.1997
     34 H          38.0914   52.7554   34.5474 H       1  LIG1        0.1997
     35 H          43.4687   49.8041   37.1588 H       1  LIG1        0.0545
     36 H          43.6517   51.4953   38.1280 H       1  LIG1        0.0545
     37 H          42.1832   53.4492   34.8903 H       1  LIG1        0.0482
     38 H          43.3614   53.6428   36.4053 H       1  LIG1        0.0482
     39 H          43.9149   52.0672   33.6346 H       1  LIG1        0.0508
     40 H          44.6778   53.7629   34.2600 H       1  LIG1        0.0508
     41 H          47.0800   52.3389   34.2954 H       1  LIG1        0.1048
@<TRIPOS>BOND
     1     1     2   ar
     2     1     6   ar
     3     1     7    1
     4     2     3   ar
     5     2     8    1
     6     3     4   ar
     7     3    24    1
     8     4     5   ar
     9     4    25    1
    10     5     6   ar
    11     5     9    1
    12     6    26    1
    13     9    27    1
    14     9    28    1
    15    10     9    1
    16    10    11    1
    17    10    13    1
    18    10    29    1
    19    11    12    1
    20    11    30    1
    21    11    31    1
    22    12    14    2
    23    12    18   am
    24    13    32    1
    25    13    33    1
    26    13    34    1
    27    15    18    1
    28    15    19    1
    29    15    35    1
    30    15    36    1
    31    16    17    1
    32    16    37    1
    33    16    38    1
    34    17    21    1
    35    17    39    1
    36    17    40    1
    37    18    16    1
    38    20    23   ar
    39    20    41    1
    40    21    19   ar
    41    21    20   ar
    42    22    19   ar
    43    22    23   ar
