@<TRIPOS>MOLECULE
Copy of bindingdb_similar_1x70_processed:43
 47 49 0 0 0
SMALL
GASTEIGER

@<TRIPOS>ATOM
      1 C          34.4445   49.2630   36.3127 C.ar    1  LIG1        0.1611
      2 C          34.6245   50.5805   36.6664 C.ar    1  LIG1        0.0119
      3 C          35.8932   51.1165   36.7230 C.ar    1  LIG1        0.1296
      4 C          36.9924   50.3334   36.4283 C.ar    1  LIG1       -0.0040
      5 C          36.8075   49.0123   36.0817 C.ar    1  LIG1       -0.0175
      6 C          35.5406   48.4755   36.0198 C.ar    1  LIG1        0.1588
      7 F          35.3772   47.1905   35.6723 F       1  LIG1       -0.2025
      8 F          33.2062   48.7521   36.2533 F       1  LIG1       -0.2024
      9 F          36.0439   52.4044   37.0654 F       1  LIG1       -0.2051
     10 C          38.4041   50.9062   36.4678 C.3     1  LIG1        0.0187
     11 C          39.0766   51.0740   35.0853 C.3     1  LIG1       -0.0118
     12 C          40.4571   51.7540   35.2047 C.3     1  LIG1        0.0673
     13 N          38.2190   51.9275   34.1953 N.4     1  LIG1        0.2213
     14 C          41.4855   50.9708   35.9966 C.2     1  LIG1        0.2216
     15 N          42.6667   51.6035   36.1710 N.am    1  LIG1       -0.2898
     16 C          43.0231   52.8946   35.5236 C.3     1  LIG1        0.0334
     17 C          44.2449   52.6925   34.6023 C.3     1  LIG1        0.0422
     18 C          43.6802   50.9736   37.0460 C.3     1  LIG1        0.0831
     19 N          46.1784   50.6649   36.7970 N.ar    1  LIG1       -0.1321
     20 C          45.0465   51.1730   36.4229 C.ar    1  LIG1        0.1541
     21 N          45.2820   51.9479   35.3314 N.ar    1  LIG1       -0.3046
     22 C          46.6139   51.8780   35.0454 C.ar    1  LIG1        0.2377
     23 N          47.1518   51.1033   35.9387 N.ar    1  LIG1       -0.1250
     24 C          47.3431   52.5560   33.8973 C.3     1  LIG1        0.4524
     25 F          48.7121   52.3168   33.9475 F       1  LIG1       -0.1632
     26 F          47.1664   53.9354   33.9116 F       1  LIG1       -0.1632
     27 F          46.8876   52.0887   32.6689 F       1  LIG1       -0.1632
     28 O          41.2352   49.8582   36.4402 O.2     1  LIG1       -0.2754
     29 C          43.5913   51.5229   38.4798 C.3     1  LIG1       -0.0393
     30 H          33.8323   51.1518   36.8807 H       1  LIG1        0.0676
     31 H          37.5993   48.4400   35.8685 H       1  LIG1        0.0651
     32 H          38.4108   51.9717   37.0206 H       1  LIG1        0.0369
     33 H          39.0744   50.1584   37.1236 H       1  LIG1        0.0369
     34 H          39.2067   49.9953   34.5737 H       1  LIG1        0.0858
     35 H          40.2724   52.8197   35.7253 H       1  LIG1        0.0414
     36 H          40.8664   51.8903   34.0845 H       1  LIG1        0.0414
     37 H          37.3998   51.5543   34.0718 H       1  LIG1        0.1997
     38 H          38.5873   52.0367   33.3712 H       1  LIG1        0.1997
     39 H          38.0895   52.7541   34.5517 H       1  LIG1        0.1997
     40 H          42.1801   53.4368   34.8693 H       1  LIG1        0.0482
     41 H          43.3456   53.6641   36.3853 H       1  LIG1        0.0482
     42 H          43.9130   52.0655   33.6343 H       1  LIG1        0.0508
     43 H          44.6609   53.7647   34.2620 H       1  LIG1        0.0508
     44 H          43.4721   49.7931   37.0929 H       1  LIG1        0.0579
     45 H          43.9334   52.6722   38.5038 H       1  LIG1        0.0252
     46 H          44.3085   50.8849   39.1989 H       1  LIG1        0.0252
     47 H          42.4597   51.4362   38.8689 H       1  LIG1        0.0252
@<TRIPOS>BOND
     1     1     2   ar
     2     1     8    1
     3     2     3   ar
     4     2    30    1
     5     3     4   ar
     6     3     9    1
     7     4     5   ar
     8     4    10    1
     9     5     6   ar
    10     5    31    1
    11     6     1   ar
    12     6     7    1
    13    10    32    1
    14    10    33    1
    15    11    10    1
    16    11    12    1
    17    11    13    1
    18    11    34    1
    19    12    14    1
    20    12    35    1
    21    12    36    1
    22    13    37    1
    23    13    38    1
    24    13    39    1
    25    14    15   am
    26    14    28    2
    27    15    16    1
    28    15    18    1
    29    16    17    1
    30    16    40    1
    31    16    41    1
    32    17    21    1
    33    17    42    1
    34    17    43    1
    35    18    29    1
    36    18    44    1
    37    19    20   ar
    38    20    18    1
    39    20    21   ar
    40    21    22   ar
    41    22    23   ar
    42    22    24    1
    43    23    19   ar
    44    24    25    1
    45    24    26    1
    46    24    27    1
    47    29    45    1
    48    29    46    1
    49    29    47    1
