Copy of bindingdb_similar_1x70_processed:49
 OpenBabel04261912203D

 50 52  0  0  1  0  0  0  0  0999 V2000
   34.4447   49.2630   36.3127 C   0  0  0  0  0  0  0  0  0  0  0  0
   34.6247   50.5805   36.6666 C   0  0  0  0  0  0  0  0  0  0  0  0
   35.8931   51.1165   36.7232 C   0  0  0  0  0  0  0  0  0  0  0  0
   36.9923   50.3335   36.4279 C   0  0  0  0  0  0  0  0  0  0  0  0
   36.8075   49.0121   36.0817 C   0  0  0  0  0  0  0  0  0  0  0  0
   35.5406   48.4754   36.0199 C   0  0  0  0  0  0  0  0  0  0  0  0
   35.3772   47.1906   35.6723 F   0  0  0  0  0  0  0  0  0  0  0  0
   33.2064   48.7523   36.2532 F   0  0  0  0  0  0  0  0  0  0  0  0
   36.0440   52.4043   37.0656 F   0  0  0  0  0  0  0  0  0  0  0  0
   38.4036   50.9068   36.4668 C   0  0  0  0  0  0  0  0  0  0  0  0
   39.0769   51.0745   35.0860 C   0  0  2  0  0  0  0  0  0  0  0  0
   40.4568   51.7542   35.2042 C   0  0  0  0  0  0  0  0  0  0  0  0
   38.2196   51.9270   34.1960 N   0  3  0  0  0  0  0  0  0  0  0  0
   41.4851   50.9710   35.9958 C   0  0  0  0  0  0  0  0  0  0  0  0
   42.6675   51.6030   36.1698 N   0  0  0  0  0  0  0  0  0  0  0  0
   43.0240   52.8948   35.5245 C   0  0  0  0  0  0  0  0  0  0  0  0
   44.2444   52.6918   34.6017 C   0  0  0  0  0  0  0  0  0  0  0  0
   43.6807   50.9730   37.0484 C   0  0  1  0  0  0  0  0  0  0  0  0
   46.1782   50.6651   36.7968 N   0  0  0  0  0  0  0  0  0  0  0  0
   45.0460   51.1728   36.4226 C   0  0  0  0  0  0  0  0  0  0  0  0
   45.2816   51.9480   35.3314 N   0  0  0  0  0  0  0  0  0  0  0  0
   46.6137   51.8783   35.0454 C   0  0  0  0  0  0  0  0  0  0  0  0
   47.1517   51.1036   35.9387 N   0  0  0  0  0  0  0  0  0  0  0  0
   47.3431   52.5561   33.8973 C   0  0  0  0  0  0  0  0  0  0  0  0
   46.8874   52.0885   32.6691 F   0  0  0  0  0  0  0  0  0  0  0  0
   47.1662   53.9354   33.9113 F   0  0  0  0  0  0  0  0  0  0  0  0
   48.7121   52.3170   33.9476 F   0  0  0  0  0  0  0  0  0  0  0  0
   41.2354   49.8586   36.4402 O   0  0  0  0  0  0  0  0  0  0  0  0
   43.6428   51.4948   38.4973 C   0  0  0  0  0  0  0  0  0  0  0  0
   42.2969   51.1665   39.1642 C   0  0  0  0  0  0  0  0  0  0  0  0
   33.8323   51.1516   36.8812 H   0  0  0  0  0  0  0  0  0  0  0  0
   37.5993   48.4399   35.8690 H   0  0  0  0  0  0  0  0  0  0  0  0
   38.4109   51.9711   37.0208 H   0  0  0  0  0  0  0  0  0  0  0  0
   39.0746   50.1600   37.1215 H   0  0  0  0  0  0  0  0  0  0  0  0
   39.2058   49.9975   34.5735 H   0  0  0  0  0  0  0  0  0  0  0  0
   40.2722   52.8193   35.7253 H   0  0  0  0  0  0  0  0  0  0  0  0
   40.8676   51.8917   34.0848 H   0  0  0  0  0  0  0  0  0  0  0  0
   37.4014   51.5476   34.0678 H   0  0  0  0  0  0  0  0  0  0  0  0
   38.5936   52.0411   33.3727 H   0  0  0  0  0  0  0  0  0  0  0  0
   38.0852   52.7529   34.5587 H   0  0  0  0  0  0  0  0  0  0  0  0
   42.1797   53.4394   34.8738 H   0  0  0  0  0  0  0  0  0  0  0  0
   43.3497   53.6634   36.3858 H   0  0  0  0  0  0  0  0  0  0  0  0
   43.9123   52.0656   33.6331 H   0  0  0  0  0  0  0  0  0  0  0  0
   44.6610   53.7640   34.2626 H   0  0  0  0  0  0  0  0  0  0  0  0
   43.4779   49.7907   37.0838 H   0  0  0  0  0  0  0  0  0  0  0  0
   44.5222   50.9691   39.1220 H   0  0  0  0  0  0  0  0  0  0  0  0
   43.8134   52.6820   38.5109 H   0  0  0  0  0  0  0  0  0  0  0  0
   41.4067   51.6402   38.5134 H   0  0  0  0  0  0  0  0  0  0  0  0
   42.2763   51.6333   40.2697 H   0  0  0  0  0  0  0  0  0  0  0  0
   42.1581   49.9765   39.2283 H   0  0  0  0  0  0  0  0  0  0  0  0
  1  2  2  0  0  0  0
  1  8  1  0  0  0  0
  2  3  1  0  0  0  0
  2 31  1  0  0  0  0
  3  4  2  0  0  0  0
  3  9  1  0  0  0  0
  4  5  1  0  0  0  0
  4 10  1  0  0  0  0
  5  6  2  0  0  0  0
  5 32  1  0  0  0  0
  6  1  1  0  0  0  0
  6  7  1  0  0  0  0
 10 33  1  0  0  0  0
 10 34  1  0  0  0  0
 11 10  1  0  0  0  0
 11 12  1  0  0  0  0
 11 13  1  0  0  0  0
 11 35  1  6  0  0  0
 12 14  1  0  0  0  0
 12 36  1  0  0  0  0
 12 37  1  0  0  0  0
 13 38  1  0  0  0  0
 13 39  1  0  0  0  0
 13 40  1  0  0  0  0
 14 15  1  0  0  0  0
 14 28  2  0  0  0  0
 15 16  1  0  0  0  0
 15 18  1  0  0  0  0
 16 17  1  0  0  0  0
 16 41  1  0  0  0  0
 16 42  1  0  0  0  0
 17 21  1  0  0  0  0
 17 43  1  0  0  0  0
 17 44  1  0  0  0  0
 18 29  1  0  0  0  0
 18 45  1  1  0  0  0
 19 20  2  0  0  0  0
 20 18  1  0  0  0  0
 20 21  1  0  0  0  0
 21 22  1  0  0  0  0
 22 23  2  0  0  0  0
 22 24  1  0  0  0  0
 23 19  1  0  0  0  0
 24 25  1  0  0  0  0
 24 26  1  0  0  0  0
 24 27  1  0  0  0  0
 29 30  1  0  0  0  0
 29 46  1  0  0  0  0
 29 47  1  0  0  0  0
 30 48  1  0  0  0  0
 30 49  1  0  0  0  0
 30 50  1  0  0  0  0
M  CHG  1  13   1
M  END
>  <Mean(IC50 fixed2)>
59

>  <First(BindingDB Ligand Name)>
CHEMBL556606

>  <Concatenate(Target Name Assigned by Curator or DataSource)>
Dipeptidyl Peptidase IV (DPP-IV), Dipeptidyl Peptidase IV (DPP-IV)

>  <First(Target Source Organism According to Curator or DataSource)>
Homo sapiens

>  <First(Curation/DataSource)>
ChEMBL

>  <First(Article DOI)>
10.1021/jm070330v

>  <Mean(PMID)>
18201067

>  <First(Authors)>
Kim, D; Kowalchick, JE; Brockunier, LL; Parmee, ER; Eiermann, GJ; Fisher, MH; He, H; Leiting, B; Lyons, K; Scapin, G; Patel, SB; Petrov, A; Pryor, KD; Roy, RS; Wu, JK; Zhang, X; Wyvratt, MJ; Zhang, BB; Zhu, L; Thornberry, NA; Weber, AE

>  <First(Institution)>
Merck Research Laboratories<span class=m1fontSize>Curated by</span> <a href=http://www.ebi.ac.uk/chembl/>ChEMBL</a>

>  <First(Link to Ligand in BindingDB)>
http://www.bindingdb.org/bind/chemsearch/marvin/MolStructure.jsp?monomerid=50232511

>  <First(Link to Ligand-Target Pair in BindingDB)>
http://www.bindingdb.org/jsp/dbsearch/PrimarySearch_ki.jsp?energyterm=kJ/mole&tag=r21&monomerid=50232511&enzyme=Dipeptidyl+Peptidase+IV+%28DPP-IV%29&column=ki&startPg=0&Increment=50&submit=Search

>  <Mean(PubChem CID)>
44445038

>  <Mean(PubChem SID)>
104055523

>  <First(ZINC ID of Ligand)>
ZINC28967658

>  <Concatenate*(UniProt (SwissProt) Entry Name of Target Chain)>
DPP4_HUMAN, DPP4_HUMAN

>  <Mean(Number of Protein Chains in Target (>1 implies a multichain complex))>
1

>  <Median(pIC50)>
8.301

>  <Journal>
JMedChem2008

>  <Activity Classes>
8.301

>  <Conformer_cresset>
1

>  <Similarity_cresset>
0.907

>  <Favorite_cresset>
false

>  <Activity (Median(pIC50))_cresset>
8.3

>  <LE (Median(pIC50))_cresset>
0.387

>  <LipE (Median(pIC50))_cresset>
4.5

>  <Tags_cresset>
training

>  <Confs_cresset>
4

>  <Conf#_cresset>
1

>  <Alns_cresset>
4

>  <MW_cresset>
436.4

>  <#Atoms_cresset>
30

>  <SlogP_cresset>
3.8

>  <TPSA_cresset>
78.7

>  <Flexibility_cresset>
5.9

>  <#RB_cresset>
7

>  <Rof5_cresset>
0

>  <Filename_cresset>
bindingdb_similar_1x70_processed.sdf

>  <Notes_cresset>
38b

>  <Selected Alignment_cresset>
true

>  <Alignment Cluster Centre_cresset>
true

>  <_cresset_fieldpoints>
-5      47.836914      49.901375      37.198719    -12.3064
-5      41.365627      48.245609      37.246872     -7.3188
-5      32.791214      45.958923      35.658649     -2.5903
-6      35.729485      50.514675      33.244099      5.6097
-6      42.033394      53.406784      32.680759     11.7087
-7      38.923794      51.277943      39.557457     -2.1264
-7      37.090591      49.378502      32.891857     -2.4096
-7      40.023796      47.932793      36.013687     -2.6155
-7      35.359127      50.409153      33.230194     -2.5456
-7      38.484909      54.468166      36.388306     -2.0766
-7      36.024437      48.990379      39.450405     -2.1482
-7      43.126293      49.614109      34.042992     -2.7851
-7      41.069302      53.992645      37.809029     -2.6241
-7      39.935585      54.385441      33.538326     -1.8819
-7      40.155579      50.307899      32.098728     -1.5190
-7      41.932430      53.301956      32.258823     -1.6922
-7      44.519405      54.112976      31.674612     -1.5865
-7      44.365753      48.287468      39.025459     -1.6109
-7      45.485233      48.578506      38.522533     -1.5856
-7      49.050156      54.155457      31.145481     -1.1104
-7      47.263775      48.716602      35.606934     -1.5209
-7      40.507256      48.358402      37.996281     -2.3079
-7      44.482876      52.937866      41.255310     -1.1080
-7      45.729553      54.322769      37.150604     -2.6518
-8      35.713604      49.795166      36.370556      7.2645
-8      39.518639      51.320412      35.943577      4.9564
-8      43.179214      51.056606      38.357944      4.9172
-8      43.463528      53.285492      34.734119      3.8088
-8      47.363335      52.603363      33.828209      5.6577
-8      37.012253      51.177410      36.643929      5.6165

$$$$
