@<TRIPOS>MOLECULE
bindingdb_similar_1x70_processed:60
 54 57 0 0 0
SMALL
GASTEIGER

@<TRIPOS>ATOM
      1 C          34.3866   49.1796   36.3696 C.ar    1  LIG1        0.1611
      2 C          34.5388   50.4881   36.7678 C.ar    1  LIG1        0.0119
      3 C          35.7924   51.0595   36.8090 C.ar    1  LIG1        0.1296
      4 C          36.9040   50.3211   36.4517 C.ar    1  LIG1       -0.0040
      5 C          36.7476   49.0087   36.0617 C.ar    1  LIG1       -0.0175
      6 C          35.4959   48.4364   36.0166 C.ar    1  LIG1        0.1588
      7 C          38.3005   50.9295   36.4654 C.3     1  LIG1        0.0187
      8 C          38.9297   51.1394   35.0684 C.3     1  LIG1       -0.0118
      9 C          40.3053   51.8313   35.1736 C.3     1  LIG1        0.0673
     10 N          38.0369   51.9916   34.2087 N.4     1  LIG1        0.2213
     11 C          41.3638   51.0063   35.8818 C.2     1  LIG1        0.2217
     12 N          42.5526   51.6271   36.0557 N.am    1  LIG1       -0.2866
     13 O          41.1273   49.8681   36.2645 O.2     1  LIG1       -0.2754
     14 C          42.8825   52.9630   35.4874 C.3     1  LIG1        0.0351
     15 C          44.0828   52.8531   34.5224 C.3     1  LIG1        0.0593
     16 C          43.5881   50.9406   36.8666 C.3     1  LIG1        0.1165
     17 C          44.9411   51.2122   36.2362 C.ar    1  LIG1        0.1515
     18 N          45.1152   52.0712   35.2095 N.ar    1  LIG1       -0.2453
     19 N          46.4340   52.0830   34.9006 N.ar    1  LIG1       -0.1453
     20 C          47.0009   51.2543   35.7324 C.ar    1  LIG1        0.2548
     21 N          46.1069   50.6952   36.5755 N.ar    1  LIG1       -0.2060
     22 F          35.9153   52.3377   37.1966 F       1  LIG1       -0.2051
     23 F          33.1623   48.6346   36.3250 F       1  LIG1       -0.2024
     24 F          35.3601   47.1610   35.6261 F       1  LIG1       -0.2025
     25 C          48.4874   50.9645   35.7609 C.3     1  LIG1        0.4540
     26 F          49.1235   51.7348   36.7275 F       1  LIG1       -0.1631
     27 F          48.7352   49.6293   36.0577 F       1  LIG1       -0.1631
     28 F          49.0920   51.2420   34.5394 F       1  LIG1       -0.1631
     29 C          43.5399   51.3349   38.3585 C.3     1  LIG1        0.1292
     30 C          42.1839   50.9555   38.9849 C.3     1  LIG1       -0.0076
     31 C          41.1188   52.0636   38.9603 C.3     1  LIG1       -0.0472
     32 C          41.8597   51.7384   40.2671 C.3     1  LIG1       -0.0472
     33 F          44.5427   50.6576   39.0446 F       1  LIG1       -0.2428
     34 H          39.0693   50.0709   34.5403 H       1  LIG1        0.0858
     35 H          43.4021   49.7570   36.8009 H       1  LIG1        0.0611
     36 H          43.7438   52.5125   38.4622 H       1  LIG1        0.0677
     37 H          33.7370   51.0270   37.0258 H       1  LIG1        0.0676
     38 H          37.5491   48.4692   35.8037 H       1  LIG1        0.0651
     39 H          39.0025   50.1871   37.0936 H       1  LIG1        0.0369
     40 H          38.2892   51.9834   37.0392 H       1  LIG1        0.0369
     41 H          40.1353   52.8666   35.7564 H       1  LIG1        0.0414
     42 H          40.6758   52.0319   34.0498 H       1  LIG1        0.0414
     43 H          37.2120   51.6223   34.1040 H       1  LIG1        0.1997
     44 H          38.3724   52.1116   33.3712 H       1  LIG1        0.1997
     45 H          37.9124   52.8186   34.5673 H       1  LIG1        0.1997
     46 H          42.0150   53.5433   34.9011 H       1  LIG1        0.0483
     47 H          43.2212   53.6658   36.3987 H       1  LIG1        0.0483
     48 H          43.7476   52.2790   33.5232 H       1  LIG1        0.0525
     49 H          44.4971   53.9456   34.2490 H       1  LIG1        0.0525
     50 H          41.7875   49.8232   38.9631 H       1  LIG1        0.0329
     51 H          39.9805   51.6865   38.9139 H       1  LIG1        0.0269
     52 H          41.4265   53.0969   38.4335 H       1  LIG1        0.0269
     53 H          41.1972   51.1625   41.0852 H       1  LIG1        0.0269
     54 H          42.6523   52.5685   40.6174 H       1  LIG1        0.0269
@<TRIPOS>BOND
     1     1     2   ar
     2     1    23    1
     3     2     3   ar
     4     2    37    1
     5     3     4   ar
     6     3    22    1
     7     4     5   ar
     8     4     7    1
     9     5     6   ar
    10     5    38    1
    11     6     1   ar
    12     6    24    1
    13     7    39    1
    14     7    40    1
    15     8     7    1
    16     8     9    1
    17     8    10    1
    18     8    34    1
    19     9    11    1
    20     9    41    1
    21     9    42    1
    22    10    43    1
    23    10    44    1
    24    10    45    1
    25    11    12   am
    26    11    13    2
    27    12    14    1
    28    12    16    1
    29    14    15    1
    30    14    46    1
    31    14    47    1
    32    15    18    1
    33    15    48    1
    34    15    49    1
    35    16    29    1
    36    16    35    1
    37    17    16    1
    38    17    18   ar
    39    18    19   ar
    40    19    20   ar
    41    20    21   ar
    42    20    25    1
    43    21    17   ar
    44    25    26    1
    45    25    27    1
    46    25    28    1
    47    29    30    1
    48    29    33    1
    49    29    36    1
    50    30    32    1
    51    30    50    1
    52    31    30    1
    53    31    51    1
    54    31    52    1
    55    32    31    1
    56    32    53    1
    57    32    54    1
