bindingdb_similar_1x70_processed:12
 OpenBabel04261912203D

 44 46  0  0  1  0  0  0  0  0999 V2000
   34.4258   49.4881   36.3953 C   0  0  0  0  0  0  0  0  0  0  0  0
   35.5025   48.6978   36.0591 C   0  0  0  0  0  0  0  0  0  0  0  0
   36.7799   49.2058   36.1359 C   0  0  0  0  0  0  0  0  0  0  0  0
   36.9851   50.5065   36.5381 C   0  0  0  0  0  0  0  0  0  0  0  0
   35.9062   51.2934   36.8765 C   0  0  0  0  0  0  0  0  0  0  0  0
   34.6287   50.7857   36.8050 C   0  0  0  0  0  0  0  0  0  0  0  0
   38.3914   51.0815   36.5792 C   0  0  0  0  0  0  0  0  0  0  0  0
   39.0665   51.1899   35.1921 C   0  0  1  0  0  0  0  0  0  0  0  0
   38.2178   52.0126   34.2606 N   0  3  0  0  0  0  0  0  0  0  0  0
   40.4540   51.8569   35.2932 C   0  0  0  0  0  0  0  0  0  0  0  0
   41.4754   51.0827   36.1047 C   0  0  0  0  0  0  0  0  0  0  0  0
   41.2123   49.9863   36.5813 O   0  0  0  0  0  0  0  0  0  0  0  0
   42.6659   51.7046   36.2563 N   0  0  0  0  0  0  0  0  0  0  0  0
   43.0419   52.9740   35.5816 C   0  0  0  0  0  0  0  0  0  0  0  0
   44.2539   52.7331   34.6537 C   0  0  0  0  0  0  0  0  0  0  0  0
   43.6802   51.1022   37.1469 C   0  0  0  0  0  0  0  0  0  0  0  0
   45.0466   51.2590   36.5125 C   0  0  0  0  0  0  0  0  0  0  0  0
   45.2879   51.9980   35.3980 N   0  0  0  0  0  0  0  0  0  0  0  0
   46.6191   51.9048   35.1127 C   0  0  0  0  0  0  0  0  0  0  0  0
   47.1502   51.1525   36.0294 N   0  0  0  0  0  0  0  0  0  0  0  0
   46.1735   50.7513   36.9017 N   0  0  0  0  0  0  0  0  0  0  0  0
   47.3564   52.5377   33.9448 C   0  0  0  0  0  0  0  0  0  0  0  0
   47.1981   53.9190   33.9174 F   0  0  0  0  0  0  0  0  0  0  0  0
   46.8950   52.0382   32.7316 F   0  0  0  0  0  0  0  0  0  0  0  0
   48.7223   52.2814   34.0039 F   0  0  0  0  0  0  0  0  0  0  0  0
   35.2511   47.0615   35.5275 Cl  0  0  0  0  0  0  0  0  0  0  0  0
   33.4980   49.1197   36.3401 H   0  0  0  0  0  0  0  0  0  0  0  0
   37.5600   48.6320   35.8878 H   0  0  0  0  0  0  0  0  0  0  0  0
   36.0509   52.2382   37.1704 H   0  0  0  0  0  0  0  0  0  0  0  0
   33.8479   51.3605   37.0495 H   0  0  0  0  0  0  0  0  0  0  0  0
   38.3660   52.1768   37.0693 H   0  0  0  0  0  0  0  0  0  0  0  0
   39.0540   50.3704   37.2831 H   0  0  0  0  0  0  0  0  0  0  0  0
   39.1897   50.0893   34.7302 H   0  0  0  0  0  0  0  0  0  0  0  0
   37.3902   51.6507   34.1539 H   0  0  0  0  0  0  0  0  0  0  0  0
   38.5812   52.0800   33.4288 H   0  0  0  0  0  0  0  0  0  0  0  0
   38.0998   52.8589   34.5739 H   0  0  0  0  0  0  0  0  0  0  0  0
   40.2781   52.9352   35.7898 H   0  0  0  0  0  0  0  0  0  0  0  0
   40.8671   51.9633   34.1712 H   0  0  0  0  0  0  0  0  0  0  0  0
   42.1996   53.5249   34.9321 H   0  0  0  0  0  0  0  0  0  0  0  0
   43.3900   53.7387   36.4377 H   0  0  0  0  0  0  0  0  0  0  0  0
   43.9086   52.0772   33.7098 H   0  0  0  0  0  0  0  0  0  0  0  0
   44.6775   53.7890   34.2744 H   0  0  0  0  0  0  0  0  0  0  0  0
   43.4552   49.9345   37.3090 H   0  0  0  0  0  0  0  0  0  0  0  0
   43.6643   51.6638   38.2071 H   0  0  0  0  0  0  0  0  0  0  0  0
  1  2  2  0  0  0  0
  1 27  1  0  0  0  0
  2  3  1  0  0  0  0
  2 26  1  0  0  0  0
  3  4  2  0  0  0  0
  3 28  1  0  0  0  0
  4  5  1  0  0  0  0
  4  7  1  0  0  0  0
  5  6  2  0  0  0  0
  5 29  1  0  0  0  0
  6  1  1  0  0  0  0
  6 30  1  0  0  0  0
  7 31  1  0  0  0  0
  7 32  1  0  0  0  0
  8  7  1  0  0  0  0
  8  9  1  0  0  0  0
  8 10  1  0  0  0  0
  8 33  1  6  0  0  0
  9 34  1  0  0  0  0
  9 35  1  0  0  0  0
  9 36  1  0  0  0  0
 10 11  1  0  0  0  0
 10 37  1  0  0  0  0
 10 38  1  0  0  0  0
 11 12  2  0  0  0  0
 11 13  1  0  0  0  0
 13 14  1  0  0  0  0
 13 16  1  0  0  0  0
 14 15  1  0  0  0  0
 14 39  1  0  0  0  0
 14 40  1  0  0  0  0
 15 18  1  0  0  0  0
 15 41  1  0  0  0  0
 15 42  1  0  0  0  0
 16 43  1  0  0  0  0
 16 44  1  0  0  0  0
 17 16  1  0  0  0  0
 17 18  1  0  0  0  0
 18 19  1  0  0  0  0
 19 20  2  0  0  0  0
 19 22  1  0  0  0  0
 20 21  1  0  0  0  0
 21 17  2  0  0  0  0
 22 23  1  0  0  0  0
 22 24  1  0  0  0  0
 22 25  1  0  0  0  0
M  CHG  1   9   1
M  END
>  <Mean(IC50 fixed2)>
59

>  <First(BindingDB Ligand Name)>
CHEMBL243230

>  <Concatenate(Target Name Assigned by Curator or DataSource)>
Dipeptidyl Peptidase IV (DPP-IV)

>  <First(Target Source Organism According to Curator or DataSource)>
Homo sapiens

>  <First(Curation/DataSource)>
ChEMBL

>  <First(Article DOI)>
10.1016/j.bmcl.2007.03.098

>  <Mean(PMID)>
17434732

>  <First(Authors)>
Kim, D; Kowalchick, JE; Edmondson, SD; Mastracchio, A; Xu, J; Eiermann, GJ; Leiting, B; Wu, JK; Pryor, KD; Patel, RA; He, H; Lyons, KA; Thornberry, NA; Weber, AE

>  <First(Institution)>
Merck Research Laboratories<span class=m1fontSize>Curated by</span> <a href=http://www.ebi.ac.uk/chembl/>ChEMBL</a>

>  <First(Link to Ligand in BindingDB)>
http://www.bindingdb.org/bind/chemsearch/marvin/MolStructure.jsp?monomerid=50210650

>  <First(Link to Ligand-Target Pair in BindingDB)>
http://www.bindingdb.org/jsp/dbsearch/PrimarySearch_ki.jsp?energyterm=kJ/mole&tag=r21&monomerid=50210650&enzyme=Dipeptidyl+Peptidase+IV+%28DPP-IV%29&column=ki&startPg=0&Increment=50&submit=Search

>  <Mean(PubChem CID)>
44431200

>  <Mean(PubChem SID)>
104087137

>  <First(ZINC ID of Ligand)>
ZINC28820801

>  <Concatenate*(UniProt (SwissProt) Entry Name of Target Chain)>
DPP4_HUMAN

>  <Mean(Number of Protein Chains in Target (>1 implies a multichain complex))>
1

>  <Median(pIC50)>
7.22914798835786

>  <Journal>
BiorgMedChemLett2007

>  <Activity Classes>
7.22914798835786

>  <Conformer_cresset>
1

>  <Similarity_cresset>
0.842

>  <Favorite_cresset>
false

>  <Activity (Median(pIC50))_cresset>
7.23

>  <LE (Median(pIC50))_cresset>
0.389

>  <LipE (Median(pIC50))_cresset>
5

>  <Tags_cresset>
training

>  <Confs_cresset>
2

>  <Conf#_cresset>
1

>  <Alns_cresset>
2

>  <MW_cresset>
388.8

>  <#Atoms_cresset>
26

>  <SlogP_cresset>
2.3

>  <TPSA_cresset>
78.7

>  <Flexibility_cresset>
4.9

>  <#RB_cresset>
6

>  <Rof5_cresset>
0

>  <Filename_cresset>
bindingdb_similar_1x70_processed.sdf

>  <Notes_cresset>
34

>  <Selected Alignment_cresset>
true

>  <Alignment Cluster Centre_cresset>
true

>  <_cresset_fieldpoints>
-5      36.211948      48.827335      39.158195     -3.4372
-5      40.404297      48.392563      36.806732     -8.1783
-5      47.829620      49.978447      37.315876    -12.3763
-6      42.067307      53.476482      32.741829     11.5170
-7      39.964722      48.061581      36.210258     -2.5146
-7      37.281418      54.351494      36.377556     -1.9898
-7      35.334999      50.610703      33.267952     -2.2291
-7      31.240244      50.515087      36.919090     -0.9773
-7      35.516853      53.289597      34.341740     -1.8824
-7      40.925941      52.717316      38.425476     -2.5940
-7      41.944798      53.334171      32.317238     -1.6897
-7      39.985058      54.416904      33.505306     -1.8595
-7      40.164444      50.294163      32.250923     -1.5247
-7      44.555393      54.065254      31.681484     -1.5813
-7      45.828262      54.582317      36.916836     -2.3047
-7      43.078625      49.659550      34.161819     -2.6975
-7      49.093517      54.017700      31.147594     -1.1104
-7      47.976814      52.115372      38.080849     -1.4885
-7      48.763401      49.517422      35.966194     -1.3594
-7      47.267391      48.763203      35.707184     -1.4948
-7      37.249592      49.452904      32.945885     -2.2995
-7      36.162136      49.006859      39.516476     -1.8683
-7      37.935806      46.191154      36.783081     -1.4069
-8      35.709156      49.998745      36.466892      7.1995
-8      35.477833      48.487045      35.987003      5.6134
-8      39.505005      51.455799      36.033226      4.9331
-8      43.483276      53.334400      34.766422      3.7893
-8      47.376461      52.578091      33.875786      5.6558
-8      44.187546      50.963463      37.478882      2.7930
-8      43.713131      52.144684      36.240265      2.6700

$$$$
