@<TRIPOS>MOLECULE
bindingdb_similar_1x70_processed:62
 54 57 0 0 0
SMALL
GASTEIGER

@<TRIPOS>ATOM
      1 C          34.4797   49.2488   36.3966 C.ar    1  LIG1        0.1611
      2 C          34.6551   50.5779   36.7070 C.ar    1  LIG1        0.0119
      3 C          35.9184   51.1291   36.7077 C.ar    1  LIG1        0.1296
      4 C          37.0173   50.3508   36.3990 C.ar    1  LIG1       -0.0040
      5 C          36.8364   49.0194   36.0910 C.ar    1  LIG1       -0.0175
      6 C          35.5748   48.4666   36.0867 C.ar    1  LIG1        0.1588
      7 C          38.4221   50.9418   36.3868 C.3     1  LIG1        0.0187
      8 C          39.0465   51.1221   34.9846 C.3     1  LIG1       -0.0118
      9 C          40.4456   51.7660   35.0844 C.3     1  LIG1        0.0673
     10 N          38.1800   52.0079   34.1317 N.4     1  LIG1        0.2213
     11 C          41.4640   50.9337   35.8421 C.2     1  LIG1        0.2216
     12 N          42.6315   51.5622   36.1116 N.am    1  LIG1       -0.2877
     13 O          41.2113   49.7854   36.1826 O.2     1  LIG1       -0.2754
     14 C          43.0002   52.8939   35.5541 C.3     1  LIG1        0.0351
     15 C          44.3164   52.8262   34.7478 C.3     1  LIG1        0.0593
     16 C          43.6003   50.8877   37.0102 C.3     1  LIG1        0.1032
     17 C          45.0013   51.1357   36.4885 C.ar    1  LIG1        0.1504
     18 N          45.2754   52.0129   35.5008 N.ar    1  LIG1       -0.2453
     19 N          46.6155   51.9991   35.2971 N.ar    1  LIG1       -0.1453
     20 C          47.0955   51.1388   36.1511 C.ar    1  LIG1        0.2548
     21 N          46.1240   50.5821   36.9060 N.ar    1  LIG1       -0.2060
     22 F          36.0644   52.4275   37.0108 F       1  LIG1       -0.2051
     23 F          33.2467   48.7217   36.3964 F       1  LIG1       -0.2024
     24 F          35.4157   47.1709   35.7796 F       1  LIG1       -0.2025
     25 C          48.5693   50.8100   36.2768 C.3     1  LIG1        0.4540
     26 F          49.0271   50.1212   35.1597 F       1  LIG1       -0.1631
     27 F          49.3287   51.9686   36.3931 F       1  LIG1       -0.1631
     28 F          48.8341   50.0234   37.3927 F       1  LIG1       -0.1631
     29 C          43.4762   51.3445   38.4792 C.3     1  LIG1        0.0498
     30 N          42.2092   51.0196   39.1484 N.ar    1  LIG1       -0.3346
     31 C          42.0113   50.0806   40.1043 C.ar    1  LIG1        0.0960
     32 N          40.7520   50.1020   40.4988 N.ar    1  LIG1       -0.2441
     33 C          40.1019   51.0741   39.7882 C.ar    1  LIG1        0.0454
     34 C          41.0035   51.6195   38.9753 C.ar    1  LIG1        0.0241
     35 H          39.1437   50.0488   34.4569 H       1  LIG1        0.0858
     36 H          43.4090   49.7037   36.9743 H       1  LIG1        0.0599
     37 H          33.8634   51.1459   36.9317 H       1  LIG1        0.0676
     38 H          37.6275   48.4507   35.8659 H       1  LIG1        0.0651
     39 H          39.1262   50.2108   37.0260 H       1  LIG1        0.0369
     40 H          38.4287   52.0073   36.9387 H       1  LIG1        0.0369
     41 H          40.2963   52.8235   35.6323 H       1  LIG1        0.0414
     42 H          40.8348   51.9193   33.9592 H       1  LIG1        0.0414
     43 H          37.3418   51.6685   34.0323 H       1  LIG1        0.1997
     44 H          38.5158   52.1173   33.2926 H       1  LIG1        0.1997
     45 H          38.0872   52.8386   34.4918 H       1  LIG1        0.1997
     46 H          42.2077   53.4131   34.8226 H       1  LIG1        0.0483
     47 H          43.1765   53.6419   36.4749 H       1  LIG1        0.0483
     48 H          44.1068   52.3034   33.6882 H       1  LIG1        0.0525
     49 H          44.7499   53.9317   34.5748 H       1  LIG1        0.0525
     50 H          44.3645   50.8295   39.1023 H       1  LIG1        0.0515
     51 H          43.6361   52.5318   38.5354 H       1  LIG1        0.0515
     52 H          42.7152   49.4664   40.4612 H       1  LIG1        0.1029
     53 H          39.1374   51.3262   39.8655 H       1  LIG1        0.0845
     54 H          40.8200   52.3623   38.3315 H       1  LIG1        0.0825
@<TRIPOS>BOND
     1     1     2   ar
     2     1    23    1
     3     2     3   ar
     4     2    37    1
     5     3     4   ar
     6     3    22    1
     7     4     5   ar
     8     4     7    1
     9     5     6   ar
    10     5    38    1
    11     6     1   ar
    12     6    24    1
    13     7    39    1
    14     7    40    1
    15     8     7    1
    16     8     9    1
    17     8    10    1
    18     8    35    1
    19     9    11    1
    20     9    41    1
    21     9    42    1
    22    10    43    1
    23    10    44    1
    24    10    45    1
    25    11    12   am
    26    11    13    2
    27    12    14    1
    28    12    16    1
    29    14    15    1
    30    14    46    1
    31    14    47    1
    32    15    18    1
    33    15    48    1
    34    15    49    1
    35    16    29    1
    36    16    36    1
    37    17    16    1
    38    17    18   ar
    39    18    19   ar
    40    19    20   ar
    41    20    21   ar
    42    20    25    1
    43    21    17   ar
    44    25    26    1
    45    25    27    1
    46    25    28    1
    47    29    30    1
    48    29    50    1
    49    29    51    1
    50    30    31   ar
    51    31    32   ar
    52    31    52    1
    53    32    33   ar
    54    33    34   ar
    55    33    53    1
    56    34    30   ar
    57    34    54    1
