bindingdb_similar_1x70_processed:13
 OpenBabel04261912203D

 47 49  0  0  1  0  0  0  0  0999 V2000
   34.4446   49.2630   36.3130 C   0  0  0  0  0  0  0  0  0  0  0  0
   35.5405   48.4753   36.0200 C   0  0  0  0  0  0  0  0  0  0  0  0
   36.8073   49.0122   36.0819 C   0  0  0  0  0  0  0  0  0  0  0  0
   36.9922   50.3334   36.4280 C   0  0  0  0  0  0  0  0  0  0  0  0
   35.8931   51.1165   36.7230 C   0  0  0  0  0  0  0  0  0  0  0  0
   34.6245   50.5805   36.6666 C   0  0  0  0  0  0  0  0  0  0  0  0
   38.4038   50.9062   36.4676 C   0  0  0  0  0  0  0  0  0  0  0  0
   39.0769   51.0744   35.0856 C   0  0  2  0  0  0  0  0  0  0  0  0
   40.4572   51.7547   35.2045 C   0  0  0  0  0  0  0  0  0  0  0  0
   41.4843   50.9702   35.9955 C   0  0  0  0  0  0  0  0  0  0  0  0
   42.6656   51.6009   36.1689 N   0  0  0  0  0  0  0  0  0  0  0  0
   41.2350   49.8580   36.4399 O   0  0  0  0  0  0  0  0  0  0  0  0
   38.2197   51.9268   34.1958 N   0  3  0  0  0  0  0  0  0  0  0  0
   43.0245   52.8933   35.5292 C   0  0  0  0  0  0  0  0  0  0  0  0
   44.2423   52.6935   34.6022 C   0  0  0  0  0  0  0  0  0  0  0  0
   43.6809   50.9780   37.0444 C   0  0  0  0  0  0  0  0  0  0  0  0
   45.0465   51.1732   36.4208 C   0  0  0  0  0  0  0  0  0  0  0  0
   45.2813   51.9490   35.3293 N   0  0  0  0  0  0  0  0  0  0  0  0
   46.6127   51.8787   35.0454 C   0  0  0  0  0  0  0  0  0  0  0  0
   47.1514   51.1039   35.9378 N   0  0  0  0  0  0  0  0  0  0  0  0
   46.1782   50.6652   36.7962 N   0  0  0  0  0  0  0  0  0  0  0  0
   36.0439   52.4044   37.0654 F   0  0  0  0  0  0  0  0  0  0  0  0
   33.2064   48.7520   36.2536 F   0  0  0  0  0  0  0  0  0  0  0  0
   35.3772   47.1906   35.6727 F   0  0  0  0  0  0  0  0  0  0  0  0
   47.3476   52.5537   33.9011 C   0  0  0  0  0  0  0  0  0  0  0  0
   47.3091   51.7494   32.5857 C   0  0  0  0  0  0  0  0  0  0  0  0
   37.5992   48.4398   35.8686 H   0  0  0  0  0  0  0  0  0  0  0  0
   33.8322   51.1517   36.8812 H   0  0  0  0  0  0  0  0  0  0  0  0
   38.4105   51.9711   37.0208 H   0  0  0  0  0  0  0  0  0  0  0  0
   39.0751   50.1588   37.1218 H   0  0  0  0  0  0  0  0  0  0  0  0
   39.2061   49.9959   34.5734 H   0  0  0  0  0  0  0  0  0  0  0  0
   40.2715   52.8192   35.7268 H   0  0  0  0  0  0  0  0  0  0  0  0
   40.8679   51.8951   34.0852 H   0  0  0  0  0  0  0  0  0  0  0  0
   37.3970   51.5564   34.0765 H   0  0  0  0  0  0  0  0  0  0  0  0
   38.5857   52.0313   33.3686 H   0  0  0  0  0  0  0  0  0  0  0  0
   38.0947   52.7568   34.5496 H   0  0  0  0  0  0  0  0  0  0  0  0
   42.1810   53.4480   34.8862 H   0  0  0  0  0  0  0  0  0  0  0  0
   43.3582   53.6449   36.4025 H   0  0  0  0  0  0  0  0  0  0  0  0
   43.9127   52.0691   33.6315 H   0  0  0  0  0  0  0  0  0  0  0  0
   44.6492   53.7708   34.2681 H   0  0  0  0  0  0  0  0  0  0  0  0
   43.4688   49.8031   37.1594 H   0  0  0  0  0  0  0  0  0  0  0  0
   43.6510   51.4925   38.1276 H   0  0  0  0  0  0  0  0  0  0  0  0
   48.4897   52.6883   34.2442 H   0  0  0  0  0  0  0  0  0  0  0  0
   46.8981   53.6511   33.7177 H   0  0  0  0  0  0  0  0  0  0  0  0
   48.4259   51.5592   32.1877 H   0  0  0  0  0  0  0  0  0  0  0  0
   46.7030   52.3524   31.7426 H   0  0  0  0  0  0  0  0  0  0  0  0
   46.7790   50.6851   32.7523 H   0  0  0  0  0  0  0  0  0  0  0  0
  1  2  2  0  0  0  0
  1 23  1  0  0  0  0
  2  3  1  0  0  0  0
  2 24  1  0  0  0  0
  3  4  2  0  0  0  0
  3 27  1  0  0  0  0
  4  5  1  0  0  0  0
  4  7  1  0  0  0  0
  5  6  2  0  0  0  0
  5 22  1  0  0  0  0
  6  1  1  0  0  0  0
  6 28  1  0  0  0  0
  7  8  1  0  0  0  0
  7 29  1  0  0  0  0
  7 30  1  0  0  0  0
  8  9  1  0  0  0  0
  8 13  1  0  0  0  0
  8 31  1  6  0  0  0
  9 10  1  0  0  0  0
  9 32  1  0  0  0  0
  9 33  1  0  0  0  0
 10 11  1  0  0  0  0
 10 12  2  0  0  0  0
 11 14  1  0  0  0  0
 11 16  1  0  0  0  0
 13 34  1  0  0  0  0
 13 35  1  0  0  0  0
 13 36  1  0  0  0  0
 14 15  1  0  0  0  0
 14 37  1  0  0  0  0
 14 38  1  0  0  0  0
 15 18  1  0  0  0  0
 15 39  1  0  0  0  0
 15 40  1  0  0  0  0
 16 41  1  0  0  0  0
 16 42  1  0  0  0  0
 17 16  1  0  0  0  0
 17 18  1  0  0  0  0
 18 19  1  0  0  0  0
 19 20  2  0  0  0  0
 19 25  1  0  0  0  0
 20 21  1  0  0  0  0
 21 17  2  0  0  0  0
 25 26  1  0  0  0  0
 25 43  1  0  0  0  0
 25 44  1  0  0  0  0
 26 45  1  0  0  0  0
 26 46  1  0  0  0  0
 26 47  1  0  0  0  0
M  CHG  1  13   1
M  END
>  <Mean(IC50 fixed2)>
37

>  <First(BindingDB Ligand Name)>
CHEMBL233685

>  <Concatenate(Target Name Assigned by Curator or DataSource)>
Dipeptidyl Peptidase IV (DPP-IV), Dipeptidyl Peptidase IV (DPP-IV)

>  <First(Target Source Organism According to Curator or DataSource)>
Homo sapiens

>  <First(Curation/DataSource)>
ChEMBL

>  <First(Article DOI)>
10.1016/j.bmcl.2007.03.098

>  <Mean(PMID)>
18002548.5

>  <First(Authors)>
Kim, D; Kowalchick, JE; Edmondson, SD; Mastracchio, A; Xu, J; Eiermann, GJ; Leiting, B; Wu, JK; Pryor, KD; Patel, RA; He, H; Lyons, KA; Thornberry, NA; Weber, AE

>  <First(Institution)>
Merck Research Laboratories<span class=m1fontSize>Curated by</span> <a href=http://www.ebi.ac.uk/chembl/>ChEMBL</a>

>  <First(Link to Ligand in BindingDB)>
http://www.bindingdb.org/bind/chemsearch/marvin/MolStructure.jsp?monomerid=50210652

>  <First(Link to Ligand-Target Pair in BindingDB)>
http://www.bindingdb.org/jsp/dbsearch/PrimarySearch_ki.jsp?energyterm=kJ/mole&tag=r21&monomerid=50210652&enzyme=Dipeptidyl+Peptidase+IV+%28DPP-IV%29&column=ki&startPg=0&Increment=50&submit=Search

>  <Mean(PubChem CID)>
44431217

>  <Mean(PubChem SID)>
104087139

>  <First(ZINC ID of Ligand)>
ZINC28820852

>  <Concatenate*(UniProt (SwissProt) Entry Name of Target Chain)>
DPP4_HUMAN, DPP4_HUMAN

>  <Mean(Number of Protein Chains in Target (>1 implies a multichain complex))>
1

>  <Median(pIC50)>
7.43179827593301

>  <Journal>
BiorgMedChemLett2007

>  <Activity Classes>
7.43179827593301

>  <Conformer_cresset>
1

>  <Similarity_cresset>
0.851

>  <Favorite_cresset>
false

>  <Activity (Median(pIC50))_cresset>
7.43

>  <LE (Median(pIC50))_cresset>
0.400

>  <LipE (Median(pIC50))_cresset>
5.1

>  <Tags_cresset>
training

>  <Confs_cresset>
5

>  <Conf#_cresset>
1

>  <Alns_cresset>
5

>  <MW_cresset>
368.4

>  <#Atoms_cresset>
26

>  <SlogP_cresset>
2.4

>  <TPSA_cresset>
78.7

>  <Flexibility_cresset>
5.9

>  <#RB_cresset>
6

>  <Rof5_cresset>
0

>  <Filename_cresset>
bindingdb_similar_1x70_processed.sdf

>  <Notes_cresset>
47

>  <Selected Alignment_cresset>
true

>  <Alignment Cluster Centre_cresset>
true

>  <_cresset_fieldpoints>
-5      47.844570      49.909924      37.154606    -13.9405
-5      41.309555      48.195114      37.162441     -7.3791
-5      32.794758      45.956890      35.670177     -2.6748
-6      35.701576      50.553123      33.253403      5.5113
-6      42.032658      53.448696      32.686329     11.5822
-7      35.369663      50.403316      33.227852     -2.5486
-7      40.023109      47.926868      35.967224     -2.5481
-7      40.882431      52.509281      38.365459     -2.6346
-7      39.944729      54.380512      33.527721     -1.8740
-7      40.162197      50.308952      32.098835     -1.5155
-7      44.996105      54.252773      31.782246     -1.6714
-7      45.823086      54.627808      36.697689     -2.0536
-7      44.235615      49.539623      33.715572     -2.3228
-7      47.893768      51.747620      38.164181     -1.3413
-7      38.472996      54.474827      36.369606     -2.0533
-7      36.018909      48.986179      39.450142     -2.1446
-7      37.073334      49.396023      32.893734     -2.4193
-7      48.453102      54.698589      31.658470     -1.1016
-7      41.914162      53.330811      32.273602     -1.6635
-7      43.115341      49.624256      34.011799     -2.7034
-8      35.713413      49.795128      36.370598      7.2641
-8      39.510605      51.318535      35.936829      4.9346
-8      43.463654      53.284756      34.731216      3.7885
-8      44.191425      50.824444      37.374130      2.7908
-8      47.140358      52.102596      33.562756      4.6201
-8      37.011810      51.175373      36.644623      5.6135

$$$$
