@<TRIPOS>MOLECULE
bindingdb_similar_1x70_processed:30
 47 49 0 0 0
SMALL
GASTEIGER

@<TRIPOS>ATOM
      1 C          34.6032   49.1552   36.4716 C.ar    1  LIG1        0.0548
      2 C          35.7331   48.4191   36.1890 C.ar    1  LIG1       -0.0499
      3 C          36.9674   49.0273   36.1523 C.ar    1  LIG1       -0.0578
      4 C          37.0825   50.3783   36.3952 C.ar    1  LIG1       -0.0420
      5 C          35.9534   51.1138   36.6779 C.ar    1  LIG1       -0.0578
      6 C          34.7200   50.5050   36.7173 C.ar    1  LIG1       -0.0499
      7 C          38.4390   51.0649   36.3603 C.3     1  LIG1        0.0159
      8 C          39.1196   51.1129   34.9751 C.3     1  LIG1       -0.0119
      9 N          38.2727   51.8962   34.0119 N.4     1  LIG1        0.2213
     10 C          40.5044   51.7853   35.0744 C.3     1  LIG1        0.0673
     11 C          41.5110   50.9867   35.8815 C.2     1  LIG1        0.2214
     12 O          41.2365   49.8752   36.3145 O.2     1  LIG1       -0.2754
     13 N          42.6995   51.5997   36.0800 N.am    1  LIG1       -0.2923
     14 C          43.0827   52.9030   35.4775 C.3     1  LIG1        0.0332
     15 C          44.3395   52.7392   34.5940 C.3     1  LIG1        0.0422
     16 C          43.6955   50.9532   36.9608 C.3     1  LIG1        0.0746
     17 C          45.0814   51.1598   36.3851 C.ar    1  LIG1        0.1512
     18 N          45.3546   51.9728   35.3313 N.ar    1  LIG1       -0.3048
     19 C          46.6966   51.9133   35.0915 C.ar    1  LIG1        0.2376
     20 N          47.2022   51.1038   35.9730 N.ar    1  LIG1       -0.1250
     21 N          46.1990   50.6349   36.7789 N.ar    1  LIG1       -0.1324
     22 C          47.4692   52.6395   34.0030 C.3     1  LIG1        0.4524
     23 F          48.8288   52.3545   34.0671 F       1  LIG1       -0.1632
     24 F          47.0287   52.2681   32.7370 F       1  LIG1       -0.1632
     25 F          47.3335   54.0198   34.1059 F       1  LIG1       -0.1632
     26 C          33.2298   48.5090   36.5252 C.3     1  LIG1        0.4174
     27 F          32.3290   49.1605   35.6890 F       1  LIG1       -0.1659
     28 F          32.7135   48.5672   37.8145 F       1  LIG1       -0.1659
     29 F          33.2471   47.1700   36.1466 F       1  LIG1       -0.1659
     30 H          39.2531   49.9950   34.5600 H       1  LIG1        0.0858
     31 H          35.6580   47.4383   36.0105 H       1  LIG1        0.0623
     32 H          37.7832   48.4865   35.9476 H       1  LIG1        0.0620
     33 H          36.0304   52.0946   36.8569 H       1  LIG1        0.0620
     34 H          33.9048   51.0455   36.9251 H       1  LIG1        0.0623
     35 H          38.3210   52.1914   36.7587 H       1  LIG1        0.0368
     36 H          39.1553   50.4793   37.1235 H       1  LIG1        0.0368
     37 H          37.4403   51.5383   33.9298 H       1  LIG1        0.1997
     38 H          38.6327   51.9182   33.1766 H       1  LIG1        0.1997
     39 H          38.1633   52.7597   34.2783 H       1  LIG1        0.1997
     40 H          40.3300   52.8580   35.5836 H       1  LIG1        0.0414
     41 H          40.9235   51.9063   33.9561 H       1  LIG1        0.0414
     42 H          42.2608   53.4619   34.8101 H       1  LIG1        0.0482
     43 H          43.3717   53.6358   36.3828 H       1  LIG1        0.0482
     44 H          44.0448   52.1410   33.5964 H       1  LIG1        0.0508
     45 H          44.7628   53.8225   34.3002 H       1  LIG1        0.0508
     46 H          43.4790   49.7758   37.0411 H       1  LIG1        0.0545
     47 H          43.6401   51.4450   38.0541 H       1  LIG1        0.0545
@<TRIPOS>BOND
     1     1     2   ar
     2     1    26    1
     3     2     3   ar
     4     2    31    1
     5     3     4   ar
     6     3    32    1
     7     4     5   ar
     8     4     7    1
     9     5     6   ar
    10     5    33    1
    11     6     1   ar
    12     6    34    1
    13     7    35    1
    14     7    36    1
    15     8     7    1
    16     8     9    1
    17     8    10    1
    18     8    30    1
    19     9    37    1
    20     9    38    1
    21     9    39    1
    22    10    11    1
    23    10    40    1
    24    10    41    1
    25    11    12    2
    26    11    13   am
    27    13    14    1
    28    13    16    1
    29    14    15    1
    30    14    42    1
    31    14    43    1
    32    15    18    1
    33    15    44    1
    34    15    45    1
    35    16    46    1
    36    16    47    1
    37    17    16    1
    38    17    18   ar
    39    18    19   ar
    40    19    20   ar
    41    19    22    1
    42    20    21   ar
    43    21    17   ar
    44    22    23    1
    45    22    24    1
    46    22    25    1
    47    26    27    1
    48    26    28    1
    49    26    29    1
