bindingdb_similar_1x70_processed:30
 OpenBabel04261912203D

 47 49  0  0  1  0  0  0  0  0999 V2000
   34.6032   49.1552   36.4716 C   0  0  0  0  0  0  0  0  0  0  0  0
   35.7331   48.4191   36.1890 C   0  0  0  0  0  0  0  0  0  0  0  0
   36.9674   49.0273   36.1523 C   0  0  0  0  0  0  0  0  0  0  0  0
   37.0825   50.3783   36.3952 C   0  0  0  0  0  0  0  0  0  0  0  0
   35.9534   51.1138   36.6779 C   0  0  0  0  0  0  0  0  0  0  0  0
   34.7200   50.5050   36.7173 C   0  0  0  0  0  0  0  0  0  0  0  0
   38.4390   51.0649   36.3603 C   0  0  0  0  0  0  0  0  0  0  0  0
   39.1196   51.1129   34.9751 C   0  0  1  0  0  0  0  0  0  0  0  0
   38.2727   51.8962   34.0119 N   0  3  0  0  0  0  0  0  0  0  0  0
   40.5044   51.7853   35.0744 C   0  0  0  0  0  0  0  0  0  0  0  0
   41.5110   50.9867   35.8815 C   0  0  0  0  0  0  0  0  0  0  0  0
   41.2365   49.8752   36.3145 O   0  0  0  0  0  0  0  0  0  0  0  0
   42.6995   51.5997   36.0800 N   0  0  0  0  0  0  0  0  0  0  0  0
   43.0827   52.9030   35.4775 C   0  0  0  0  0  0  0  0  0  0  0  0
   44.3395   52.7392   34.5940 C   0  0  0  0  0  0  0  0  0  0  0  0
   43.6955   50.9532   36.9608 C   0  0  0  0  0  0  0  0  0  0  0  0
   45.0814   51.1598   36.3851 C   0  0  0  0  0  0  0  0  0  0  0  0
   45.3546   51.9728   35.3313 N   0  0  0  0  0  0  0  0  0  0  0  0
   46.6966   51.9133   35.0915 C   0  0  0  0  0  0  0  0  0  0  0  0
   47.2022   51.1038   35.9730 N   0  0  0  0  0  0  0  0  0  0  0  0
   46.1990   50.6349   36.7789 N   0  0  0  0  0  0  0  0  0  0  0  0
   47.4692   52.6395   34.0030 C   0  0  0  0  0  0  0  0  0  0  0  0
   48.8288   52.3545   34.0671 F   0  0  0  0  0  0  0  0  0  0  0  0
   47.0287   52.2681   32.7370 F   0  0  0  0  0  0  0  0  0  0  0  0
   47.3335   54.0198   34.1059 F   0  0  0  0  0  0  0  0  0  0  0  0
   33.2298   48.5090   36.5252 C   0  0  0  0  0  0  0  0  0  0  0  0
   32.3290   49.1605   35.6890 F   0  0  0  0  0  0  0  0  0  0  0  0
   32.7135   48.5672   37.8145 F   0  0  0  0  0  0  0  0  0  0  0  0
   33.2471   47.1700   36.1466 F   0  0  0  0  0  0  0  0  0  0  0  0
   39.2531   49.9950   34.5600 H   0  0  0  0  0  0  0  0  0  0  0  0
   35.6580   47.4383   36.0105 H   0  0  0  0  0  0  0  0  0  0  0  0
   37.7832   48.4865   35.9476 H   0  0  0  0  0  0  0  0  0  0  0  0
   36.0304   52.0946   36.8569 H   0  0  0  0  0  0  0  0  0  0  0  0
   33.9048   51.0455   36.9251 H   0  0  0  0  0  0  0  0  0  0  0  0
   38.3210   52.1914   36.7587 H   0  0  0  0  0  0  0  0  0  0  0  0
   39.1553   50.4793   37.1235 H   0  0  0  0  0  0  0  0  0  0  0  0
   37.4403   51.5383   33.9298 H   0  0  0  0  0  0  0  0  0  0  0  0
   38.6327   51.9182   33.1766 H   0  0  0  0  0  0  0  0  0  0  0  0
   38.1633   52.7597   34.2783 H   0  0  0  0  0  0  0  0  0  0  0  0
   40.3300   52.8580   35.5836 H   0  0  0  0  0  0  0  0  0  0  0  0
   40.9235   51.9063   33.9561 H   0  0  0  0  0  0  0  0  0  0  0  0
   42.2608   53.4619   34.8101 H   0  0  0  0  0  0  0  0  0  0  0  0
   43.3717   53.6358   36.3828 H   0  0  0  0  0  0  0  0  0  0  0  0
   44.0448   52.1410   33.5964 H   0  0  0  0  0  0  0  0  0  0  0  0
   44.7628   53.8225   34.3002 H   0  0  0  0  0  0  0  0  0  0  0  0
   43.4790   49.7758   37.0411 H   0  0  0  0  0  0  0  0  0  0  0  0
   43.6401   51.4450   38.0541 H   0  0  0  0  0  0  0  0  0  0  0  0
  1  2  2  0  0  0  0
  1 26  1  0  0  0  0
  2  3  1  0  0  0  0
  2 31  1  0  0  0  0
  3  4  2  0  0  0  0
  3 32  1  0  0  0  0
  4  5  1  0  0  0  0
  4  7  1  0  0  0  0
  5  6  2  0  0  0  0
  5 33  1  0  0  0  0
  6  1  1  0  0  0  0
  6 34  1  0  0  0  0
  7 35  1  0  0  0  0
  7 36  1  0  0  0  0
  8  7  1  0  0  0  0
  8  9  1  0  0  0  0
  8 10  1  0  0  0  0
  8 30  1  6  0  0  0
  9 37  1  0  0  0  0
  9 38  1  0  0  0  0
  9 39  1  0  0  0  0
 10 11  1  0  0  0  0
 10 40  1  0  0  0  0
 10 41  1  0  0  0  0
 11 12  2  0  0  0  0
 11 13  1  0  0  0  0
 13 14  1  0  0  0  0
 13 16  1  0  0  0  0
 14 15  1  0  0  0  0
 14 42  1  0  0  0  0
 14 43  1  0  0  0  0
 15 18  1  0  0  0  0
 15 44  1  0  0  0  0
 15 45  1  0  0  0  0
 16 46  1  0  0  0  0
 16 47  1  0  0  0  0
 17 16  1  0  0  0  0
 17 18  1  0  0  0  0
 18 19  1  0  0  0  0
 19 20  2  0  0  0  0
 19 22  1  0  0  0  0
 20 21  1  0  0  0  0
 21 17  2  0  0  0  0
 22 23  1  0  0  0  0
 22 24  1  0  0  0  0
 22 25  1  0  0  0  0
 26 27  1  0  0  0  0
 26 28  1  0  0  0  0
 26 29  1  0  0  0  0
M  CHG  1   9   1
M  END
>  <Mean(IC50 fixed2)>
511

>  <First(BindingDB Ligand Name)>
CHEMBL245181

>  <Concatenate(Target Name Assigned by Curator or DataSource)>
Dipeptidyl Peptidase IV (DPP-IV)

>  <First(Target Source Organism According to Curator or DataSource)>
Homo sapiens

>  <First(Curation/DataSource)>
ChEMBL

>  <First(Article DOI)>
10.1016/j.bmcl.2007.03.098

>  <Mean(PMID)>
17434732

>  <First(Authors)>
Kim, D; Kowalchick, JE; Edmondson, SD; Mastracchio, A; Xu, J; Eiermann, GJ; Leiting, B; Wu, JK; Pryor, KD; Patel, RA; He, H; Lyons, KA; Thornberry, NA; Weber, AE

>  <First(Institution)>
Merck Research Laboratories<span class=m1fontSize>Curated by</span> <a href=http://www.ebi.ac.uk/chembl/>ChEMBL</a>

>  <First(Link to Ligand in BindingDB)>
http://www.bindingdb.org/bind/chemsearch/marvin/MolStructure.jsp?monomerid=50210667

>  <First(Link to Ligand-Target Pair in BindingDB)>
http://www.bindingdb.org/jsp/dbsearch/PrimarySearch_ki.jsp?energyterm=kJ/mole&tag=r21&monomerid=50210667&enzyme=Dipeptidyl+Peptidase+IV+%28DPP-IV%29&column=ki&startPg=0&Increment=50&submit=Search

>  <Mean(PubChem CID)>
44431197

>  <Mean(PubChem SID)>
104087154

>  <First(ZINC ID of Ligand)>
ZINC28820795

>  <Concatenate*(UniProt (SwissProt) Entry Name of Target Chain)>
DPP4_HUMAN

>  <Mean(Number of Protein Chains in Target (>1 implies a multichain complex))>
1

>  <Median(pIC50)>
6.29157909986529

>  <Journal>
BiorgMedChemLett2007

>  <Activity Classes>
6.29157909986529

>  <Conformer_cresset>
3

>  <Similarity_cresset>
0.800

>  <Favorite_cresset>
false

>  <Activity (Median(pIC50))_cresset>
6.29

>  <LE (Median(pIC50))_cresset>
0.304

>  <LipE (Median(pIC50))_cresset>
3.7

>  <Tags_cresset>
training

>  <Confs_cresset>
4

>  <Conf#_cresset>
3

>  <Alns_cresset>
4

>  <MW_cresset>
422.4

>  <#Atoms_cresset>
29

>  <SlogP_cresset>
2.6

>  <TPSA_cresset>
78.7

>  <Flexibility_cresset>
4.9

>  <#RB_cresset>
7

>  <Rof5_cresset>
0

>  <Filename_cresset>
bindingdb_similar_1x70_processed.sdf

>  <Notes_cresset>
32

>  <Selected Alignment_cresset>
true

>  <Alignment Cluster Centre_cresset>
true

>  <_cresset_fieldpoints>
-5      36.333752      49.041523      39.264313     -3.0013
-5      40.428356      48.306637      36.630226     -7.5769
-5      47.849770      49.856831      37.205708    -12.2419
-5      31.874075      45.729198      38.538002     -1.1253
-6      37.117439      46.025070      34.921291      2.9755
-6      42.174744      53.483803      32.625893     11.5938
-6      40.781525      54.211506      33.390930     11.1589
-7      40.127407      47.931427      35.942604     -2.4019
-7      37.110069      49.298405      32.920834     -2.2862
-7      43.168465      49.707897      33.875698     -2.6969
-7      35.304657      50.252670      33.312008     -2.5698
-7      35.866348      49.003410      39.580162     -2.1780
-7      33.047703      51.453148      39.340622     -1.3982
-7      35.639580      53.276424      34.317654     -1.8748
-7      36.992191      54.212181      35.910187     -1.9500
-7      40.946968      52.584991      38.231495     -2.6747
-7      40.321369      50.118740      32.109718     -1.5152
-7      40.044449      54.338718      33.282562     -1.8185
-7      42.077667      53.337002      32.192150     -1.6780
-7      38.348167      54.562717      35.999950     -1.7937
-7      43.048851      48.993439      34.405235     -2.2452
-7      47.940903      51.937088      38.113422     -1.4895
-7      47.370380      48.746883      35.514591     -1.4918
-7      45.774456      54.448315      37.050873     -2.3093
-7      49.289188      54.353676      31.396915     -1.1104
-7      44.740017      54.381168      31.773285     -1.5556
-7      29.939867      47.036480      36.712708     -1.1263
-7      31.709335      51.720516      37.741337     -1.5576
-8      35.838627      49.764240      36.433479      7.2354
-8      33.424431      48.621082      36.523964      6.2416
-8      39.558659      51.405701      35.818985      4.9730
-8      43.550785      53.319595      34.709053      3.7936
-8      47.494247      52.688541      33.937519      5.6559
-8      44.194817      50.790871      37.300674      2.7933

$$$$
