@<TRIPOS>MOLECULE
bindingdb_similar_1x70_processed:42
 48 50 0 0 0
SMALL
GASTEIGER

@<TRIPOS>ATOM
      1 N          42.6634   51.6024   36.1705 N.am    1  LIG1       -0.2923
      2 C          41.4820   50.9689   35.9969 C.2     1  LIG1        0.2214
      3 O          41.2351   49.8560   36.4427 O.2     1  LIG1       -0.2754
      4 C          35.5330   48.4710   36.0185 C.ar    1  LIG1        0.1371
      5 C          34.4475   49.2782   36.3047 C.ar    1  LIG1        0.0456
      6 C          34.6292   50.5915   36.6687 C.ar    1  LIG1       -0.0100
      7 C          35.8986   51.1176   36.7319 C.ar    1  LIG1        0.1280
      8 C          36.9925   50.3274   36.4361 C.ar    1  LIG1       -0.0041
      9 C          36.8016   49.0076   36.0866 C.ar    1  LIG1       -0.0193
     10 F          36.0473   52.4051   37.0713 F       1  LIG1       -0.2052
     11 C          38.4039   50.9003   36.4662 C.3     1  LIG1        0.0187
     12 C          39.0706   51.0717   35.0799 C.3     1  LIG1       -0.0118
     13 C          40.4527   51.7494   35.2024 C.3     1  LIG1        0.0673
     14 N          38.2131   51.9238   34.1830 N.4     1  LIG1        0.2213
     15 F          35.3819   47.1833   35.6642 F       1  LIG1       -0.2043
     16 S          32.7736   48.6415   36.1922 S.3     1  LIG1       -0.1257
     17 C          31.8449   49.8654   35.2256 C.3     1  LIG1       -0.0134
     18 C          43.6816   50.9836   37.0454 C.3     1  LIG1        0.0746
     19 C          43.0256   52.8950   35.5334 C.3     1  LIG1        0.0332
     20 C          44.2439   52.6950   34.6042 C.3     1  LIG1        0.0422
     21 N          45.2830   51.9490   35.3290 N.ar    1  LIG1       -0.3048
     22 C          45.0475   51.1746   36.4204 C.ar    1  LIG1        0.1512
     23 N          46.1789   50.6674   36.7971 N.ar    1  LIG1       -0.1324
     24 C          46.6154   51.8786   35.0445 C.ar    1  LIG1        0.2376
     25 N          47.1529   51.1054   35.9397 N.ar    1  LIG1       -0.1250
     26 C          47.3449   52.5557   33.8966 C.3     1  LIG1        0.4524
     27 F          46.8892   52.0874   32.6689 F       1  LIG1       -0.1632
     28 F          47.1684   53.9352   33.9105 F       1  LIG1       -0.1632
     29 F          48.7135   52.3151   33.9490 F       1  LIG1       -0.1632
     30 H          33.8404   51.1675   36.8802 H       1  LIG1        0.0658
     31 H          37.5920   48.4354   35.8673 H       1  LIG1        0.0650
     32 H          38.4068   51.9695   37.0116 H       1  LIG1        0.0369
     33 H          39.0721   50.1571   37.1279 H       1  LIG1        0.0369
     34 H          39.2103   49.9920   34.5766 H       1  LIG1        0.0858
     35 H          40.2701   52.8170   35.7201 H       1  LIG1        0.0414
     36 H          40.8694   51.8863   34.0850 H       1  LIG1        0.0414
     37 H          37.3906   51.5546   34.0546 H       1  LIG1        0.1997
     38 H          38.5803   52.0376   33.3568 H       1  LIG1        0.1997
     39 H          38.0830   52.7528   34.5370 H       1  LIG1        0.1997
     40 H          30.6956   49.5328   35.1397 H       1  LIG1        0.0344
     41 H          32.3201   49.9570   34.1277 H       1  LIG1        0.0344
     42 H          31.9027   50.9345   35.7671 H       1  LIG1        0.0344
     43 H          43.4698   49.8088   37.1640 H       1  LIG1        0.0545
     44 H          43.6558   51.5080   38.1245 H       1  LIG1        0.0545
     45 H          42.1814   53.4515   34.8928 H       1  LIG1        0.0482
     46 H          43.3600   53.6411   36.4121 H       1  LIG1        0.0482
     47 H          43.9094   52.0640   33.6399 H       1  LIG1        0.0508
     48 H          44.6571   53.7666   34.2575 H       1  LIG1        0.0508
@<TRIPOS>BOND
     1     1     2   am
     2     1    19    1
     3     2     3    2
     4     2    13    1
     5     4     5   ar
     6     4     9   ar
     7     4    15    1
     8     5     6   ar
     9     5    16    1
    10     6     7   ar
    11     6    30    1
    12     7     8   ar
    13     7    10    1
    14     8     9   ar
    15     8    11    1
    16     9    31    1
    17    11    32    1
    18    11    33    1
    19    12    11    1
    20    12    13    1
    21    12    14    1
    22    12    34    1
    23    13    35    1
    24    13    36    1
    25    14    37    1
    26    14    38    1
    27    14    39    1
    28    16    17    1
    29    17    40    1
    30    17    41    1
    31    17    42    1
    32    18     1    1
    33    18    22    1
    34    18    43    1
    35    18    44    1
    36    19    20    1
    37    19    45    1
    38    19    46    1
    39    20    21    1
    40    20    47    1
    41    20    48    1
    42    21    24   ar
    43    22    21   ar
    44    23    22   ar
    45    23    25   ar
    46    24    25   ar
    47    24    26    1
    48    26    27    1
    49    26    28    1
    50    26    29    1
