@<TRIPOS>MOLECULE
bindingdb_similar_1x70_processed:6
 44 46 0 0 0
SMALL
GASTEIGER

@<TRIPOS>ATOM
      1 C          34.4472   49.2633   36.3130 C.ar    1  LIG1        0.0410
      2 C          35.5399   48.4776   36.0204 C.ar    1  LIG1       -0.0431
      3 C          36.8064   49.0110   36.0802 C.ar    1  LIG1       -0.0570
      4 C          36.9903   50.3315   36.4255 C.ar    1  LIG1       -0.0420
      5 C          35.8952   51.1142   36.7218 C.ar    1  LIG1       -0.0570
      6 C          34.6274   50.5811   36.6685 C.ar    1  LIG1       -0.0431
      7 C          38.3982   50.9118   36.4658 C.3     1  LIG1        0.0159
      8 C          39.0754   51.0733   35.0851 C.3     1  LIG1       -0.0119
      9 N          38.2194   51.9271   34.1940 N.4     1  LIG1        0.2213
     10 C          40.4543   51.7548   35.2059 C.3     1  LIG1        0.0673
     11 C          41.4841   50.9702   35.9958 C.2     1  LIG1        0.2214
     12 O          41.2345   49.8579   36.4401 O.2     1  LIG1       -0.2754
     13 N          42.6657   51.6013   36.1692 N.am    1  LIG1       -0.2923
     14 C          43.0263   52.8938   35.5306 C.3     1  LIG1        0.0332
     15 C          44.2444   52.6927   34.6029 C.3     1  LIG1        0.0422
     16 C          43.6810   50.9790   37.0446 C.3     1  LIG1        0.0746
     17 C          45.0470   51.1725   36.4215 C.ar    1  LIG1        0.1512
     18 N          45.2822   51.9478   35.3307 N.ar    1  LIG1       -0.3048
     19 C          46.6143   51.8780   35.0454 C.ar    1  LIG1        0.2376
     20 N          47.1519   51.1033   35.9391 N.ar    1  LIG1       -0.1250
     21 N          46.1784   50.6647   36.7970 N.ar    1  LIG1       -0.1324
     22 C          47.3435   52.5557   33.8974 C.3     1  LIG1        0.4524
     23 F          46.8879   52.0882   32.6691 F       1  LIG1       -0.1632
     24 F          47.1668   53.9352   33.9114 F       1  LIG1       -0.1632
     25 F          48.7125   52.3164   33.9477 F       1  LIG1       -0.1632
     26 CL         32.8434   48.5924   36.2355 Cl      1  LIG1       -0.0835
     27 H          35.4128   47.5197   35.7642 H       1  LIG1        0.0632
     28 H          37.5981   48.4387   35.8675 H       1  LIG1        0.0621
     29 H          36.0220   52.0730   36.9759 H       1  LIG1        0.0621
     30 H          33.8355   51.1524   36.8857 H       1  LIG1        0.0632
     31 H          38.3814   51.9841   37.0063 H       1  LIG1        0.0368
     32 H          39.0666   50.1710   37.1315 H       1  LIG1        0.0368
     33 H          39.2091   49.9946   34.5753 H       1  LIG1        0.0858
     34 H          37.4060   51.5475   34.0563 H       1  LIG1        0.1997
     35 H          38.5947   52.0516   33.3757 H       1  LIG1        0.1997
     36 H          38.0763   52.7478   34.5578 H       1  LIG1        0.1997
     37 H          40.2651   52.8164   35.7331 H       1  LIG1        0.0414
     38 H          40.8685   51.8981   34.0880 H       1  LIG1        0.0414
     39 H          42.1813   53.4500   34.8901 H       1  LIG1        0.0482
     40 H          43.3610   53.6436   36.4052 H       1  LIG1        0.0482
     41 H          43.9126   52.0656   33.6348 H       1  LIG1        0.0508
     42 H          44.6606   53.7644   34.2619 H       1  LIG1        0.0508
     43 H          43.4686   49.8038   37.1594 H       1  LIG1        0.0545
     44 H          43.6511   51.4937   38.1279 H       1  LIG1        0.0545
@<TRIPOS>BOND
     1     1     2   ar
     2     1    26    1
     3     2     3   ar
     4     2    27    1
     5     3     4   ar
     6     3    28    1
     7     4     5   ar
     8     4     7    1
     9     5     6   ar
    10     5    29    1
    11     6     1   ar
    12     6    30    1
    13     7    31    1
    14     7    32    1
    15     8     7    1
    16     8     9    1
    17     8    10    1
    18     8    33    1
    19     9    34    1
    20     9    35    1
    21     9    36    1
    22    10    11    1
    23    10    37    1
    24    10    38    1
    25    11    12    2
    26    11    13   am
    27    13    14    1
    28    13    16    1
    29    14    15    1
    30    14    39    1
    31    14    40    1
    32    15    18    1
    33    15    41    1
    34    15    42    1
    35    16    43    1
    36    16    44    1
    37    17    16    1
    38    17    18   ar
    39    18    19   ar
    40    19    20   ar
    41    19    22    1
    42    20    21   ar
    43    21    17   ar
    44    22    23    1
    45    22    24    1
    46    22    25    1
