bindingdb_similar_1x70_processed:25
 OpenBabel04261912203D

 44 46  0  0  1  0  0  0  0  0999 V2000
   35.5681   48.4324   36.1150 C   0  0  0  0  0  0  0  0  0  0  0  0
   34.4689   49.2288   36.3478 C   0  0  0  0  0  0  0  0  0  0  0  0
   34.6394   50.5627   36.6355 C   0  0  0  0  0  0  0  0  0  0  0  0
   35.9055   51.1072   36.6834 C   0  0  0  0  0  0  0  0  0  0  0  0
   37.0114   50.3181   36.4272 C   0  0  0  0  0  0  0  0  0  0  0  0
   36.8328   48.9787   36.1545 C   0  0  0  0  0  0  0  0  0  0  0  0
   35.3583   46.7405   35.7618 Cl  0  0  0  0  0  0  0  0  0  0  0  0
   36.0469   52.4100   36.9803 F   0  0  0  0  0  0  0  0  0  0  0  0
   38.4193   50.9052   36.4391 C   0  0  0  0  0  0  0  0  0  0  0  0
   39.0846   51.0958   35.0541 C   0  0  2  0  0  0  0  0  0  0  0  0
   40.4729   51.7621   35.1937 C   0  0  0  0  0  0  0  0  0  0  0  0
   38.2366   51.9674   34.1662 N   0  3  0  0  0  0  0  0  0  0  0  0
   41.4983   50.9639   35.9788 C   0  0  0  0  0  0  0  0  0  0  0  0
   42.6798   51.5918   36.1751 N   0  0  0  0  0  0  0  0  0  0  0  0
   41.2480   49.8424   36.3999 O   0  0  0  0  0  0  0  0  0  0  0  0
   43.6962   50.9534   37.0392 C   0  0  0  0  0  0  0  0  0  0  0  0
   43.0468   52.9006   35.5754 C   0  0  0  0  0  0  0  0  0  0  0  0
   44.2663   52.7210   34.6439 C   0  0  0  0  0  0  0  0  0  0  0  0
   45.3045   51.9570   35.3519 N   0  0  0  0  0  0  0  0  0  0  0  0
   45.0653   51.1558   36.4230 C   0  0  0  0  0  0  0  0  0  0  0  0
   46.1956   50.6379   36.7894 N   0  0  0  0  0  0  0  0  0  0  0  0
   46.6378   51.8920   35.0688 C   0  0  0  0  0  0  0  0  0  0  0  0
   47.1722   51.0955   35.9450 N   0  0  0  0  0  0  0  0  0  0  0  0
   47.3737   52.5947   33.9406 C   0  0  0  0  0  0  0  0  0  0  0  0
   48.7419   52.3487   33.9922 F   0  0  0  0  0  0  0  0  0  0  0  0
   46.9222   52.1579   32.6996 F   0  0  0  0  0  0  0  0  0  0  0  0
   47.2015   53.9737   33.9881 F   0  0  0  0  0  0  0  0  0  0  0  0
   33.5492   48.8375   36.3086 H   0  0  0  0  0  0  0  0  0  0  0  0
   33.8420   51.1401   36.8125 H   0  0  0  0  0  0  0  0  0  0  0  0
   37.6281   48.3984   35.9787 H   0  0  0  0  0  0  0  0  0  0  0  0
   38.4147   51.9685   36.9964 H   0  0  0  0  0  0  0  0  0  0  0  0
   39.1116   50.1720   37.0894 H   0  0  0  0  0  0  0  0  0  0  0  0
   39.2140   50.0268   34.5234 H   0  0  0  0  0  0  0  0  0  0  0  0
   40.2927   52.8203   35.7302 H   0  0  0  0  0  0  0  0  0  0  0  0
   40.8958   51.9221   34.0823 H   0  0  0  0  0  0  0  0  0  0  0  0
   37.4111   51.6087   34.0322 H   0  0  0  0  0  0  0  0  0  0  0  0
   38.6061   52.0845   33.3421 H   0  0  0  0  0  0  0  0  0  0  0  0
   38.1143   52.7956   34.5240 H   0  0  0  0  0  0  0  0  0  0  0  0
   43.4830   49.7769   37.1416 H   0  0  0  0  0  0  0  0  0  0  0  0
   43.6707   51.4580   38.1280 H   0  0  0  0  0  0  0  0  0  0  0  0
   42.2039   53.4806   34.9539 H   0  0  0  0  0  0  0  0  0  0  0  0
   43.3858   53.6167   36.4764 H   0  0  0  0  0  0  0  0  0  0  0  0
   43.9306   52.1142   33.6645 H   0  0  0  0  0  0  0  0  0  0  0  0
   44.6819   53.7997   34.3242 H   0  0  0  0  0  0  0  0  0  0  0  0
  1  2  2  0  0  0  0
  1  6  1  0  0  0  0
  1  7  1  0  0  0  0
  2  3  1  0  0  0  0
  2 28  1  0  0  0  0
  3  4  2  0  0  0  0
  3 29  1  0  0  0  0
  4  5  1  0  0  0  0
  4  8  1  0  0  0  0
  5  6  2  0  0  0  0
  5  9  1  0  0  0  0
  6 30  1  0  0  0  0
  9 31  1  0  0  0  0
  9 32  1  0  0  0  0
 10  9  1  0  0  0  0
 10 11  1  0  0  0  0
 10 12  1  0  0  0  0
 10 33  1  6  0  0  0
 11 13  1  0  0  0  0
 11 34  1  0  0  0  0
 11 35  1  0  0  0  0
 12 36  1  0  0  0  0
 12 37  1  0  0  0  0
 12 38  1  0  0  0  0
 13 14  1  0  0  0  0
 13 15  2  0  0  0  0
 14 17  1  0  0  0  0
 16 14  1  0  0  0  0
 16 20  1  0  0  0  0
 16 39  1  0  0  0  0
 16 40  1  0  0  0  0
 17 18  1  0  0  0  0
 17 41  1  0  0  0  0
 17 42  1  0  0  0  0
 18 19  1  0  0  0  0
 18 43  1  0  0  0  0
 18 44  1  0  0  0  0
 19 22  1  0  0  0  0
 20 19  1  0  0  0  0
 21 20  2  0  0  0  0
 21 23  1  0  0  0  0
 22 23  2  0  0  0  0
 22 24  1  0  0  0  0
 24 25  1  0  0  0  0
 24 26  1  0  0  0  0
 24 27  1  0  0  0  0
M  CHG  1  12   1
M  END
>  <Mean(IC50 fixed2)>
21

>  <First(BindingDB Ligand Name)>
DPP-4 ligand 3

>  <Concatenate(Target Name Assigned by Curator or DataSource)>
Dipeptidyl Peptidase IV (DPP-IV), Dipeptidyl Peptidase IV (DPP-IV)

>  <First(Target Source Organism According to Curator or DataSource)>
Homo sapiens (human)

>  <First(Curation/DataSource)>
Curated from the literature by BindingDB

>  <First(Article DOI)>
10.1016/j.bmcl.2007.02.040

>  <Mean(PMID)>
17386037

>  <First(Authors)>
Adam, GC; Meng, J; Athanasopoulos, J; Zhang, X; Chapman, KT

>  <First(Institution)>
Merck Research Laboratories

>  <First(Link to Ligand in BindingDB)>
http://www.bindingdb.org/bind/chemsearch/marvin/MolStructure.jsp?monomerid=15561

>  <First(Link to Ligand-Target Pair in BindingDB)>
http://www.bindingdb.org/jsp/dbsearch/PrimarySearch_ki.jsp?energyterm=kJ/mole&tag=r21&monomerid=15561&enzyme=Dipeptidyl+Peptidase+IV+%28DPP-IV%29&column=ki&startPg=0&Increment=50&submit=Search

>  <Mean(PubChem CID)>
23647136

>  <Mean(PubChem SID)>
46515855

>  <First(ZINC ID of Ligand)>
ZINC14958943

>  <Concatenate*(UniProt (SwissProt) Entry Name of Target Chain)>
DPP4_HUMAN, DPP4_HUMAN

>  <Mean(Number of Protein Chains in Target (>1 implies a multichain complex))>
1

>  <Median(pIC50)>
7.67778070526608

>  <Journal>
BiorgMedChemLett2007

>  <Activity Classes>
7.67778070526608

>  <Conformer_cresset>
1

>  <Similarity_cresset>
0.840

>  <Favorite_cresset>
false

>  <Activity (Median(pIC50))_cresset>
7.68

>  <LE (Median(pIC50))_cresset>
0.398

>  <LipE (Median(pIC50))_cresset>
5

>  <Tags_cresset>
training

>  <Confs_cresset>
2

>  <Conf#_cresset>
1

>  <Alns_cresset>
2

>  <MW_cresset>
406.8

>  <#Atoms_cresset>
27

>  <SlogP_cresset>
2.7

>  <TPSA_cresset>
78.7

>  <Flexibility_cresset>
4.9

>  <#RB_cresset>
6

>  <Rof5_cresset>
0

>  <Filename_cresset>
bindingdb_similar_1x70_processed.sdf

>  <Notes_cresset>
39

>  <Selected Alignment_cresset>
true

>  <Alignment Cluster Centre_cresset>
true

>  <_cresset_fieldpoints>
-5      36.301933      48.662575      39.226097     -2.0580
-5      47.857483      49.858578      37.170769    -12.3788
-5      40.554153      48.192509      36.600098     -7.6119
-6      31.605551      50.409981      36.558697      4.2835
-6      42.077583      53.514595      32.753288     11.4437
-7      36.994167      49.411755      32.950619     -2.3682
-7      31.267698      50.315495      36.714554     -1.0013
-7      31.728167      49.966343      38.204639     -0.9973
-7      36.196434      49.263626      39.552414     -1.9931
-7      40.886166      52.471283      38.369144     -2.6482
-7      35.592106      50.175621      33.180019     -2.3876
-7      38.502716      54.477642      36.381866     -2.0482
-7      39.996082      54.416271      33.552696     -1.8744
-7      40.191322      50.383488      32.058445     -1.5046
-7      41.962975      53.426636      32.332912     -1.6949
-7      44.563103      54.206161      31.746189     -1.5816
-7      40.050014      47.933071      35.866901     -2.5201
-7      43.133286      49.664692      33.974037     -2.6965
-7      47.980244      51.954380      38.047142     -1.4880
-7      45.807827      54.466404      37.008797     -2.3048
-7      47.318398      48.731926      35.491486     -1.4947
-7      49.102802      54.247547      31.234777     -1.1105
-7      48.806007      49.486595      35.807919     -1.3584
-8      35.745083      49.780640      36.393353      7.2150
-8      35.542442      48.214626      36.066170      5.6062
-8      37.025246      51.175602      36.609001      5.6063
-8      39.530128      51.319523      35.914001      4.9485
-8      43.484512      53.309647      34.791054      3.7890
-8      47.393150      52.642075      33.873371      5.6555
-8      44.204399      50.798546      37.368057      2.7957
-8      43.732899      52.050694      36.194721      2.6740

$$$$
