@<TRIPOS>MOLECULE
bindingdb_similar_1x70_processed:48
 50 52 0 0 0
SMALL
GASTEIGER

@<TRIPOS>ATOM
      1 C          34.4401   49.2603   36.3152 C.ar    1  LIG1        0.1611
      2 C          34.6168   50.5795   36.6657 C.ar    1  LIG1        0.0119
      3 C          35.8842   51.1170   36.7247 C.ar    1  LIG1        0.1296
      4 C          36.9823   50.3319   36.4330 C.ar    1  LIG1       -0.0040
      5 C          36.8020   49.0105   36.0869 C.ar    1  LIG1       -0.0175
      6 C          35.5368   48.4729   36.0245 C.ar    1  LIG1        0.1588
      7 F          35.3771   47.1880   35.6782 F       1  LIG1       -0.2025
      8 F          33.2033   48.7471   36.2564 F       1  LIG1       -0.2024
      9 F          36.0349   52.4068   37.0617 F       1  LIG1       -0.2051
     10 C          38.3919   50.9043   36.4723 C.3     1  LIG1        0.0187
     11 C          39.0596   51.0679   35.0878 C.3     1  LIG1       -0.0118
     12 C          40.4415   51.7377   35.2278 C.3     1  LIG1        0.0673
     13 N          38.2099   51.9253   34.1876 N.4     1  LIG1        0.2213
     14 C          41.4680   50.9519   36.0223 C.2     1  LIG1        0.2214
     15 N          42.6475   51.5882   36.1970 N.am    1  LIG1       -0.2917
     16 C          43.0163   52.8785   35.5637 C.3     1  LIG1        0.0383
     17 C          44.1809   52.6928   34.5576 C.3     1  LIG1        0.0587
     18 C          43.6869   50.9792   37.0440 C.3     1  LIG1        0.0747
     19 N          46.1667   50.6906   36.7673 N.ar    1  LIG1       -0.1324
     20 C          45.0361   51.1945   36.3887 C.ar    1  LIG1        0.1517
     21 N          45.2588   51.9742   35.2889 N.ar    1  LIG1       -0.2992
     22 C          46.6047   51.9011   35.0211 C.ar    1  LIG1        0.2381
     23 N          47.1376   51.1282   35.9179 N.ar    1  LIG1       -0.1250
     24 C          47.3910   52.5608   33.8994 C.3     1  LIG1        0.4524
     25 F          46.9509   52.1331   32.6541 F       1  LIG1       -0.1632
     26 F          48.7432   52.2435   33.9781 F       1  LIG1       -0.1632
     27 F          47.3126   53.9470   33.9358 F       1  LIG1       -0.1632
     28 O          41.2229   49.8349   36.4589 O.2     1  LIG1       -0.2754
     29 C          44.4972   54.0925   33.9934 C.3     1  LIG1       -0.0400
     30 C          43.6751   51.8315   33.3829 C.3     1  LIG1       -0.0400
     31 H          33.8233   51.1506   36.8757 H       1  LIG1        0.0676
     32 H          37.5956   48.4401   35.8752 H       1  LIG1        0.0651
     33 H          38.3932   51.9711   37.0226 H       1  LIG1        0.0369
     34 H          39.0617   50.1635   37.1367 H       1  LIG1        0.0369
     35 H          39.1898   49.9865   34.5844 H       1  LIG1        0.0858
     36 H          40.2439   52.7932   35.7628 H       1  LIG1        0.0414
     37 H          40.8590   51.8966   34.1145 H       1  LIG1        0.0414
     38 H          37.3847   51.5639   34.0646 H       1  LIG1        0.1997
     39 H          38.5793   52.0235   33.3619 H       1  LIG1        0.1997
     40 H          38.0895   52.7577   34.5350 H       1  LIG1        0.1997
     41 H          42.1279   53.4742   35.0279 H       1  LIG1        0.0488
     42 H          43.4274   53.5834   36.4437 H       1  LIG1        0.0488
     43 H          43.4891   49.8020   37.1673 H       1  LIG1        0.0545
     44 H          43.6778   51.5086   38.1210 H       1  LIG1        0.0545
     45 H          45.1844   53.9886   33.0168 H       1  LIG1        0.0253
     46 H          43.4971   54.6605   33.6508 H       1  LIG1        0.0253
     47 H          45.0466   54.7462   34.8363 H       1  LIG1        0.0253
     48 H          42.8126   52.4216   32.7943 H       1  LIG1        0.0253
     49 H          44.5688   51.5972   32.6195 H       1  LIG1        0.0253
     50 H          43.2375   50.7968   33.8059 H       1  LIG1        0.0253
@<TRIPOS>BOND
     1     1     2   ar
     2     1     8    1
     3     2     3   ar
     4     2    31    1
     5     3     4   ar
     6     3     9    1
     7     4     5   ar
     8     4    10    1
     9     5     6   ar
    10     5    32    1
    11     6     1   ar
    12     6     7    1
    13    10    33    1
    14    10    34    1
    15    11    10    1
    16    11    12    1
    17    11    13    1
    18    11    35    1
    19    12    14    1
    20    12    36    1
    21    12    37    1
    22    13    38    1
    23    13    39    1
    24    13    40    1
    25    14    15   am
    26    14    28    2
    27    15    16    1
    28    15    18    1
    29    16    17    1
    30    16    41    1
    31    16    42    1
    32    17    21    1
    33    17    29    1
    34    17    30    1
    35    18    43    1
    36    18    44    1
    37    19    20   ar
    38    20    18    1
    39    20    21   ar
    40    21    22   ar
    41    22    23   ar
    42    22    24    1
    43    23    19   ar
    44    24    25    1
    45    24    26    1
    46    24    27    1
    47    29    45    1
    48    29    46    1
    49    29    47    1
    50    30    48    1
    51    30    49    1
    52    30    50    1
