@<TRIPOS>MOLECULE
bindingdb_similar_1x70_processed:3
 41 43 0 0 0
SMALL
GASTEIGER

@<TRIPOS>ATOM
      1 C          35.5745   48.4776   36.0479 C.ar    1  LIG1        0.1588
      2 C          34.4596   49.2415   36.3324 C.ar    1  LIG1        0.1611
      3 C          34.6078   50.5671   36.6700 C.ar    1  LIG1        0.0119
      4 C          35.8631   51.1339   36.7188 C.ar    1  LIG1        0.1296
      5 C          36.9809   50.3748   36.4301 C.ar    1  LIG1       -0.0040
      6 C          36.8279   49.0456   36.1002 C.ar    1  LIG1       -0.0175
      7 C          38.3803   50.9763   36.4567 C.3     1  LIG1        0.0187
      8 C          39.0587   51.1064   35.0731 C.3     1  LIG1       -0.0118
      9 C          40.4438   51.7767   35.1925 C.3     1  LIG1        0.0673
     10 C          41.4620   50.9617   35.9672 C.2     1  LIG1        0.2214
     11 N          38.2124   51.9333   34.1447 N.4     1  LIG1        0.2213
     12 O          41.1885   49.8481   36.3950 O.2     1  LIG1       -0.2754
     13 C          43.6732   50.8880   36.9841 C.3     1  LIG1        0.0746
     14 C          43.0371   52.8736   35.5518 C.3     1  LIG1        0.0332
     15 C          44.2705   52.7181   34.6339 C.3     1  LIG1        0.0416
     16 N          42.6609   51.5617   36.1422 N.am    1  LIG1       -0.2923
     17 C          45.0501   51.1249   36.3993 C.ar    1  LIG1        0.1508
     18 C          46.6353   51.9313   35.1063 C.ar    1  LIG1        0.1199
     19 N          45.2978   51.9570   35.3550 N.ar    1  LIG1       -0.3146
     20 N          46.1825   50.6187   36.7766 N.ar    1  LIG1       -0.1330
     21 N          47.1698   51.1213   35.9690 N.ar    1  LIG1       -0.1378
     22 F          35.4423   47.1852   35.7170 F       1  LIG1       -0.2025
     23 F          35.9811   52.4287   37.0468 F       1  LIG1       -0.2051
     24 F          33.2340   48.7004   36.2802 F       1  LIG1       -0.2024
     25 H          39.1922   50.0115   34.6001 H       1  LIG1        0.0858
     26 H          33.8022   51.1217   36.8785 H       1  LIG1        0.0676
     27 H          37.6332   48.4905   35.8917 H       1  LIG1        0.0651
     28 H          38.3567   52.0607   36.9700 H       1  LIG1        0.0369
     29 H          39.0540   50.2661   37.1496 H       1  LIG1        0.0369
     30 H          40.2769   52.8372   35.7288 H       1  LIG1        0.0414
     31 H          40.8553   51.9254   34.0749 H       1  LIG1        0.0414
     32 H          37.3828   51.5770   34.0333 H       1  LIG1        0.1997
     33 H          38.5772   52.0011   33.3138 H       1  LIG1        0.1997
     34 H          38.0961   52.7810   34.4550 H       1  LIG1        0.1997
     35 H          43.4638   49.7071   37.0212 H       1  LIG1        0.0545
     36 H          43.6295   51.3352   38.0968 H       1  LIG1        0.0545
     37 H          42.2006   53.4511   34.9191 H       1  LIG1        0.0482
     38 H          43.3562   53.5888   36.4610 H       1  LIG1        0.0482
     39 H          43.9553   52.1159   33.6448 H       1  LIG1        0.0508
     40 H          44.6945   53.7987   34.3299 H       1  LIG1        0.0508
     41 H          47.1165   52.4409   34.3930 H       1  LIG1        0.1048
@<TRIPOS>BOND
     1     1     2   ar
     2     1     6   ar
     3     1    22    1
     4     2     3   ar
     5     2    24    1
     6     3     4   ar
     7     3    26    1
     8     4     5   ar
     9     4    23    1
    10     5     6   ar
    11     5     7    1
    12     6    27    1
    13     7    28    1
    14     7    29    1
    15     8     7    1
    16     8     9    1
    17     8    11    1
    18     8    25    1
    19     9    10    1
    20     9    30    1
    21     9    31    1
    22    10    12    2
    23    10    16   am
    24    11    32    1
    25    11    33    1
    26    11    34    1
    27    13    16    1
    28    13    17    1
    29    13    35    1
    30    13    36    1
    31    14    15    1
    32    14    37    1
    33    14    38    1
    34    15    19    1
    35    15    39    1
    36    15    40    1
    37    16    14    1
    38    18    21   ar
    39    18    41    1
    40    19    17   ar
    41    19    18   ar
    42    20    17   ar
    43    20    21   ar
