bindingdb_similar_1x70_processed:5
 OpenBabel04261912203D

 44 46  0  0  1  0  0  0  0  0999 V2000
   34.4849   49.2132   36.3797 C   0  0  0  0  0  0  0  0  0  0  0  0
   34.6133   50.5678   36.5965 C   0  0  0  0  0  0  0  0  0  0  0  0
   35.8610   51.1465   36.6081 C   0  0  0  0  0  0  0  0  0  0  0  0
   36.9857   50.3777   36.4046 C   0  0  0  0  0  0  0  0  0  0  0  0
   36.8549   49.0225   36.1912 C   0  0  0  0  0  0  0  0  0  0  0  0
   35.6080   48.4408   36.1768 C   0  0  0  0  0  0  0  0  0  0  0  0
   38.3575   51.0343   36.4151 C   0  0  0  0  0  0  0  0  0  0  0  0
   39.0575   51.1198   35.0402 C   0  0  1  0  0  0  0  0  0  0  0  0
   38.2249   51.9234   34.0799 N   0  3  0  0  0  0  0  0  0  0  0  0
   40.4388   51.7955   35.1701 C   0  0  0  0  0  0  0  0  0  0  0  0
   41.4467   50.9936   35.9724 C   0  0  0  0  0  0  0  0  0  0  0  0
   41.1671   49.8886   36.4183 O   0  0  0  0  0  0  0  0  0  0  0  0
   42.6448   51.5949   36.1487 N   0  0  0  0  0  0  0  0  0  0  0  0
   43.0291   52.8979   35.5460 C   0  0  0  0  0  0  0  0  0  0  0  0
   44.2541   52.7185   34.6214 C   0  0  0  0  0  0  0  0  0  0  0  0
   43.6550   50.9346   37.0024 C   0  0  0  0  0  0  0  0  0  0  0  0
   45.0261   51.1235   36.3859 C   0  0  0  0  0  0  0  0  0  0  0  0
   45.2799   51.9351   35.3259 N   0  0  0  0  0  0  0  0  0  0  0  0
   46.6135   51.8558   35.0460 C   0  0  0  0  0  0  0  0  0  0  0  0
   47.1324   51.0368   35.9107 N   0  0  0  0  0  0  0  0  0  0  0  0
   46.1469   50.5815   36.7456 N   0  0  0  0  0  0  0  0  0  0  0  0
   47.3664   52.5719   33.9368 C   0  0  0  0  0  0  0  0  0  0  0  0
   47.2523   53.9538   34.0440 F   0  0  0  0  0  0  0  0  0  0  0  0
   48.7240   52.2695   33.9620 F   0  0  0  0  0  0  0  0  0  0  0  0
   46.8867   52.2075   32.6832 F   0  0  0  0  0  0  0  0  0  0  0  0
   33.2697   48.6491   36.3654 F   0  0  0  0  0  0  0  0  0  0  0  0
   39.2002   50.0126   34.6007 H   0  0  0  0  0  0  0  0  0  0  0  0
   33.7997   51.1301   36.7447 H   0  0  0  0  0  0  0  0  0  0  0  0
   35.9522   52.1299   36.7646 H   0  0  0  0  0  0  0  0  0  0  0  0
   37.6686   48.4603   36.0433 H   0  0  0  0  0  0  0  0  0  0  0  0
   35.5168   47.4575   36.0189 H   0  0  0  0  0  0  0  0  0  0  0  0
   38.2588   52.1460   36.8575 H   0  0  0  0  0  0  0  0  0  0  0  0
   39.0483   50.4020   37.1643 H   0  0  0  0  0  0  0  0  0  0  0  0
   37.3979   51.5625   33.9624 H   0  0  0  0  0  0  0  0  0  0  0  0
   38.6048   51.9755   33.2547 H   0  0  0  0  0  0  0  0  0  0  0  0
   38.1018   52.7768   34.3706 H   0  0  0  0  0  0  0  0  0  0  0  0
   40.2566   52.8606   35.6924 H   0  0  0  0  0  0  0  0  0  0  0  0
   40.8693   51.9337   34.0582 H   0  0  0  0  0  0  0  0  0  0  0  0
   42.1927   53.4820   34.9195 H   0  0  0  0  0  0  0  0  0  0  0  0
   43.3646   53.6139   36.4487 H   0  0  0  0  0  0  0  0  0  0  0  0
   43.9203   52.1264   33.6325 H   0  0  0  0  0  0  0  0  0  0  0  0
   44.6838   53.7965   34.3175 H   0  0  0  0  0  0  0  0  0  0  0  0
   43.4247   49.7602   37.0889 H   0  0  0  0  0  0  0  0  0  0  0  0
   43.6367   51.4264   38.0969 H   0  0  0  0  0  0  0  0  0  0  0  0
  1  2  2  0  0  0  0
  1 26  1  0  0  0  0
  2  3  1  0  0  0  0
  2 28  1  0  0  0  0
  3  4  2  0  0  0  0
  3 29  1  0  0  0  0
  4  5  1  0  0  0  0
  4  7  1  0  0  0  0
  5  6  2  0  0  0  0
  5 30  1  0  0  0  0
  6  1  1  0  0  0  0
  6 31  1  0  0  0  0
  7 32  1  0  0  0  0
  7 33  1  0  0  0  0
  8  7  1  0  0  0  0
  8  9  1  0  0  0  0
  8 10  1  0  0  0  0
  8 27  1  6  0  0  0
  9 34  1  0  0  0  0
  9 35  1  0  0  0  0
  9 36  1  0  0  0  0
 10 11  1  0  0  0  0
 10 37  1  0  0  0  0
 10 38  1  0  0  0  0
 11 12  2  0  0  0  0
 11 13  1  0  0  0  0
 13 14  1  0  0  0  0
 13 16  1  0  0  0  0
 14 15  1  0  0  0  0
 14 39  1  0  0  0  0
 14 40  1  0  0  0  0
 15 18  1  0  0  0  0
 15 41  1  0  0  0  0
 15 42  1  0  0  0  0
 16 43  1  0  0  0  0
 16 44  1  0  0  0  0
 17 16  1  0  0  0  0
 17 18  1  0  0  0  0
 18 19  1  0  0  0  0
 19 20  2  0  0  0  0
 19 22  1  0  0  0  0
 20 21  1  0  0  0  0
 21 17  2  0  0  0  0
 22 23  1  0  0  0  0
 22 24  1  0  0  0  0
 22 25  1  0  0  0  0
M  CHG  1   9   1
M  END
>  <Mean(IC50 fixed2)>
272

>  <First(BindingDB Ligand Name)>
CHEMBL242811

>  <Concatenate(Target Name Assigned by Curator or DataSource)>
Dipeptidyl Peptidase IV (DPP-IV)

>  <First(Target Source Organism According to Curator or DataSource)>
Homo sapiens

>  <First(Curation/DataSource)>
ChEMBL

>  <First(Article DOI)>
10.1016/j.bmcl.2007.03.098

>  <Mean(PMID)>
17434732

>  <First(Authors)>
Kim, D; Kowalchick, JE; Edmondson, SD; Mastracchio, A; Xu, J; Eiermann, GJ; Leiting, B; Wu, JK; Pryor, KD; Patel, RA; He, H; Lyons, KA; Thornberry, NA; Weber, AE

>  <First(Institution)>
Merck Research Laboratories<span class=m1fontSize>Curated by</span> <a href=http://www.ebi.ac.uk/chembl/>ChEMBL</a>

>  <First(Link to Ligand in BindingDB)>
http://www.bindingdb.org/bind/chemsearch/marvin/MolStructure.jsp?monomerid=50210645

>  <First(Link to Ligand-Target Pair in BindingDB)>
http://www.bindingdb.org/jsp/dbsearch/PrimarySearch_ki.jsp?energyterm=kJ/mole&tag=r21&monomerid=50210645&enzyme=Dipeptidyl+Peptidase+IV+%28DPP-IV%29&column=ki&startPg=0&Increment=50&submit=Search

>  <Mean(PubChem CID)>
44431166

>  <Mean(PubChem SID)>
104087132

>  <First(ZINC ID of Ligand)>
ZINC28820693

>  <Concatenate*(UniProt (SwissProt) Entry Name of Target Chain)>
DPP4_HUMAN

>  <Mean(Number of Protein Chains in Target (>1 implies a multichain complex))>
1

>  <Median(pIC50)>
6.5654310959658

>  <Journal>
BiorgMedChemLett2007

>  <Activity Classes>
6.5654310959658

>  <Conformer_cresset>
2

>  <Similarity_cresset>
0.835

>  <Favorite_cresset>
false

>  <Activity (Median(pIC50))_cresset>
6.57

>  <LE (Median(pIC50))_cresset>
0.354

>  <LipE (Median(pIC50))_cresset>
4.6

>  <Tags_cresset>
training

>  <Confs_cresset>
2

>  <Conf#_cresset>
2

>  <Alns_cresset>
2

>  <MW_cresset>
372.3

>  <#Atoms_cresset>
26

>  <SlogP_cresset>
2

>  <TPSA_cresset>
78.7

>  <Flexibility_cresset>
4.9

>  <#RB_cresset>
6

>  <Rof5_cresset>
0

>  <Filename_cresset>
bindingdb_similar_1x70_processed.sdf

>  <Notes_cresset>
22

>  <Selected Alignment_cresset>
true

>  <Alignment Cluster Centre_cresset>
true

>  <_cresset_fieldpoints>
-5      36.279278      49.133614      39.261841     -2.7703
-5      47.795460      49.776199      37.123871    -12.2495
-5      40.372768      48.307053      36.717075     -7.5824
-6      37.255829      46.101227      35.054768      2.7290
-6      42.059280      53.530392      32.728439     11.6528
-7      35.591228      53.324936      34.239601     -1.8236
-7      38.106434      54.504745      36.152061     -1.8301
-7      37.110001      54.265011      36.088276     -1.9505
-7      40.038841      47.952999      35.995716     -2.4376
-7      43.036358      49.698666      33.926727     -2.7152
-7      40.893578      52.551262      38.334427     -2.6026
-7      40.317722      50.198513      32.167427     -1.5243
-7      41.944675      53.426704      32.303024     -1.6917
-7      39.993809      54.373257      33.409435     -1.8367
-7      45.794823      54.402603      37.036533     -2.3072
-7      44.597965      54.352932      31.790905     -1.5570
-7      47.243164      48.675488      35.434883     -1.4920
-7      47.942558      51.843697      38.037262     -1.4900
-7      49.134666      54.274403      31.287489     -1.1101
-7      37.081573      49.322487      32.953106     -2.2881
-7      35.528698      50.113186      33.178623     -2.3590
-7      36.047989      49.312523      39.565414     -1.9242
-8      35.733749      49.794392      36.390388      7.2143
-8      39.481781      51.399670      35.892395      4.9533
-8      43.478813      53.314152      34.769470      3.7910
-8      47.388237      52.618591      33.867111      5.6550
-8      43.702827      52.031765      36.165737      2.6652
-8      44.161568      50.762882      37.328808      2.7929

$$$$
