Copy of bindingdb_similar_1x70_processed:56
 OpenBabel04261912203D

 51 53  0  0  1  0  0  0  0  0999 V2000
   34.4488   49.2505   36.3381 C   0  0  0  0  0  0  0  0  0  0  0  0
   34.6112   50.5803   36.6519 C   0  0  0  0  0  0  0  0  0  0  0  0
   35.8731   51.1323   36.6955 C   0  0  0  0  0  0  0  0  0  0  0  0
   36.9821   50.3549   36.4251 C   0  0  0  0  0  0  0  0  0  0  0  0
   36.8145   49.0222   36.1148 C   0  0  0  0  0  0  0  0  0  0  0  0
   35.5544   48.4683   36.0682 C   0  0  0  0  0  0  0  0  0  0  0  0
   35.4058   47.1714   35.7588 F   0  0  0  0  0  0  0  0  0  0  0  0
   33.2169   48.7234   36.2956 F   0  0  0  0  0  0  0  0  0  0  0  0
   36.0096   52.4303   37.0032 F   0  0  0  0  0  0  0  0  0  0  0  0
   38.3827   50.9521   36.4587 C   0  0  0  0  0  0  0  0  0  0  0  0
   39.0748   51.0972   35.0828 C   0  0  2  0  0  0  0  0  0  0  0  0
   40.4475   51.7923   35.2206 C   0  0  0  0  0  0  0  0  0  0  0  0
   38.2236   51.9044   34.1405 N   0  3  0  0  0  0  0  0  0  0  0  0
   41.4700   51.0041   36.0195 C   0  0  0  0  0  0  0  0  0  0  0  0
   42.6686   51.6088   36.1769 N   0  0  0  0  0  0  0  0  0  0  0  0
   43.0428   52.9033   35.5487 C   0  0  0  0  0  0  0  0  0  0  0  0
   44.2545   52.7064   34.6105 C   0  0  0  0  0  0  0  0  0  0  0  0
   43.6845   50.9378   37.0203 C   0  0  1  0  0  0  0  0  0  0  0  0
   46.1932   50.6830   36.8021 N   0  0  0  0  0  0  0  0  0  0  0  0
   45.0568   51.1742   36.4182 C   0  0  0  0  0  0  0  0  0  0  0  0
   45.2945   51.9576   35.3319 N   0  0  0  0  0  0  0  0  0  0  0  0
   46.6297   51.8986   35.0522 C   0  0  0  0  0  0  0  0  0  0  0  0
   47.1688   51.1326   35.9524 N   0  0  0  0  0  0  0  0  0  0  0  0
   47.3646   52.5668   33.8999 C   0  0  0  0  0  0  0  0  0  0  0  0
   48.7305   52.3101   33.9533 F   0  0  0  0  0  0  0  0  0  0  0  0
   47.2080   53.9488   33.8984 F   0  0  0  0  0  0  0  0  0  0  0  0
   46.9082   52.0945   32.6736 F   0  0  0  0  0  0  0  0  0  0  0  0
   41.2030   49.9027   36.4808 O   0  0  0  0  0  0  0  0  0  0  0  0
   43.5921   51.3498   38.5021 C   0  0  0  0  0  0  0  0  0  0  0  0
   42.2231   51.0496   39.0671 C   0  0  0  0  0  0  0  0  0  0  0  0
   41.9607   50.2268   40.0633 C   0  0  0  0  0  0  0  0  0  0  0  0
   33.8114   51.1477   36.8482 H   0  0  0  0  0  0  0  0  0  0  0  0
   37.6141   48.4544   35.9188 H   0  0  0  0  0  0  0  0  0  0  0  0
   38.3589   52.0285   36.9887 H   0  0  0  0  0  0  0  0  0  0  0  0
   39.0514   50.2320   37.1472 H   0  0  0  0  0  0  0  0  0  0  0  0
   39.2321   50.0045   34.6128 H   0  0  0  0  0  0  0  0  0  0  0  0
   40.2555   52.8549   35.7439 H   0  0  0  0  0  0  0  0  0  0  0  0
   40.8726   51.9415   34.1081 H   0  0  0  0  0  0  0  0  0  0  0  0
   37.4073   51.5201   34.0200 H   0  0  0  0  0  0  0  0  0  0  0  0
   38.6044   51.9787   33.3165 H   0  0  0  0  0  0  0  0  0  0  0  0
   38.0843   52.7473   34.4554 H   0  0  0  0  0  0  0  0  0  0  0  0
   42.1955   53.4851   34.9345 H   0  0  0  0  0  0  0  0  0  0  0  0
   43.3985   53.6309   36.4337 H   0  0  0  0  0  0  0  0  0  0  0  0
   43.9156   52.0856   33.6411 H   0  0  0  0  0  0  0  0  0  0  0  0
   44.6720   53.7802   34.2764 H   0  0  0  0  0  0  0  0  0  0  0  0
   43.4901   49.7549   36.9684 H   0  0  0  0  0  0  0  0  0  0  0  0
   44.4169   50.7353   39.1205 H   0  0  0  0  0  0  0  0  0  0  0  0
   43.8171   52.5240   38.6004 H   0  0  0  0  0  0  0  0  0  0  0  0
   41.4550   51.5187   38.6490 H   0  0  0  0  0  0  0  0  0  0  0  0
   42.6988   49.7428   40.5114 H   0  0  0  0  0  0  0  0  0  0  0  0
   41.0255   50.0883   40.3689 H   0  0  0  0  0  0  0  0  0  0  0  0
  1  2  2  0  0  0  0
  1  8  1  0  0  0  0
  2  3  1  0  0  0  0
  2 32  1  0  0  0  0
  3  4  2  0  0  0  0
  3  9  1  0  0  0  0
  4  5  1  0  0  0  0
  4 10  1  0  0  0  0
  5  6  2  0  0  0  0
  5 33  1  0  0  0  0
  6  1  1  0  0  0  0
  6  7  1  0  0  0  0
 10 34  1  0  0  0  0
 10 35  1  0  0  0  0
 11 10  1  0  0  0  0
 11 12  1  0  0  0  0
 11 13  1  0  0  0  0
 11 36  1  6  0  0  0
 12 14  1  0  0  0  0
 12 37  1  0  0  0  0
 12 38  1  0  0  0  0
 13 39  1  0  0  0  0
 13 40  1  0  0  0  0
 13 41  1  0  0  0  0
 14 15  1  0  0  0  0
 14 28  2  0  0  0  0
 15 16  1  0  0  0  0
 15 18  1  0  0  0  0
 16 17  1  0  0  0  0
 16 42  1  0  0  0  0
 16 43  1  0  0  0  0
 17 21  1  0  0  0  0
 17 44  1  0  0  0  0
 17 45  1  0  0  0  0
 18 29  1  0  0  0  0
 18 46  1  6  0  0  0
 19 20  2  0  0  0  0
 20 18  1  0  0  0  0
 20 21  1  0  0  0  0
 21 22  1  0  0  0  0
 22 23  2  0  0  0  0
 22 24  1  0  0  0  0
 23 19  1  0  0  0  0
 24 25  1  0  0  0  0
 24 26  1  0  0  0  0
 24 27  1  0  0  0  0
 29 30  1  0  0  0  0
 29 47  1  0  0  0  0
 29 48  1  0  0  0  0
 30 31  2  0  0  0  0
 30 49  1  0  0  0  0
 31 50  1  0  0  0  0
 31 51  1  0  0  0  0
M  CHG  1  13   1
M  END
>  <Mean(IC50 fixed2)>
16.75

>  <First(BindingDB Ligand Name)>
CHEMBL537000

>  <Concatenate(Target Name Assigned by Curator or DataSource)>
Dipeptidyl Peptidase IV (DPP-IV), Dipeptidyl Peptidase IV (DPP-IV)

>  <First(Target Source Organism According to Curator or DataSource)>
Homo sapiens

>  <First(Curation/DataSource)>
ChEMBL

>  <First(Article DOI)>
10.1021/jm070330v

>  <Mean(PMID)>
18201067

>  <First(Authors)>
Kim, D; Kowalchick, JE; Brockunier, LL; Parmee, ER; Eiermann, GJ; Fisher, MH; He, H; Leiting, B; Lyons, K; Scapin, G; Patel, SB; Petrov, A; Pryor, KD; Roy, RS; Wu, JK; Zhang, X; Wyvratt, MJ; Zhang, BB; Zhu, L; Thornberry, NA; Weber, AE

>  <First(Institution)>
Merck Research Laboratories<span class=m1fontSize>Curated by</span> <a href=http://www.ebi.ac.uk/chembl/>ChEMBL</a>

>  <First(Link to Ligand in BindingDB)>
http://www.bindingdb.org/bind/chemsearch/marvin/MolStructure.jsp?monomerid=50232514

>  <First(Link to Ligand-Target Pair in BindingDB)>
http://www.bindingdb.org/jsp/dbsearch/PrimarySearch_ki.jsp?energyterm=kJ/mole&tag=r21&monomerid=50232514&enzyme=Dipeptidyl+Peptidase+IV+%28DPP-IV%29&column=ki&startPg=0&Increment=50&submit=Search

>  <Mean(PubChem CID)>
44445046

>  <Mean(PubChem SID)>
104055526

>  <First(ZINC ID of Ligand)>
ZINC28967833

>  <Concatenate*(UniProt (SwissProt) Entry Name of Target Chain)>
DPP4_HUMAN, DPP4_HUMAN

>  <Mean(Number of Protein Chains in Target (>1 implies a multichain complex))>
1

>  <Median(pIC50)>
8.823

>  <Journal>
JMedChem2008

>  <Activity Classes>
8.823

>  <Conformer_cresset>
1

>  <Similarity_cresset>
0.929

>  <Favorite_cresset>
false

>  <Activity (Median(pIC50))_cresset>
8.82

>  <LE (Median(pIC50))_cresset>
0.398

>  <LipE (Median(pIC50))_cresset>
5

>  <Tags_cresset>
test

>  <Confs_cresset>
5

>  <Conf#_cresset>
1

>  <Alns_cresset>
5

>  <MW_cresset>
448.4

>  <#Atoms_cresset>
31

>  <SlogP_cresset>
3.8

>  <TPSA_cresset>
78.7

>  <Flexibility_cresset>
6.9

>  <#RB_cresset>
8

>  <Rof5_cresset>
0

>  <Filename_cresset>
bindingdb_similar_1x70_processed.sdf

>  <Notes_cresset>
40a

>  <Selected Alignment_cresset>
true

>  <Alignment Cluster Centre_cresset>
true

>  <_cresset_fieldpoints>
-5      41.457478      48.655106      37.779652     -9.3629
-5      47.861622      49.933578      37.207539    -12.0752
-5      32.835533      45.907555      35.782852     -2.6281
-6      35.701519      50.492065      33.252369      5.5580
-6      42.045300      53.472897      32.733925     11.8245
-6      44.663086      50.776859      41.580326      1.3771
-7      40.522980      48.488781      38.116692     -2.6745
-7      37.151157      49.303284      32.922119     -2.4029
-7      40.024361      47.962097      36.117733     -2.6247
-7      38.975769      51.499580      39.510345     -2.4072
-7      36.044762      49.093472      39.481979     -2.1553
-7      35.367508      50.334969      33.228439     -2.5462
-7      38.408966      54.509274      36.242870     -2.0685
-7      39.945526      54.381760      33.491756     -1.8529
-7      41.934349      53.396675      32.313377     -1.6928
-7      44.553146      54.133129      31.683563     -1.5852
-7      43.857098      48.047939      38.853493     -1.8168
-7      45.770580      54.323193      37.160751     -2.5446
-7      48.263542      49.771091      37.441242     -1.3832
-7      47.305668      48.747841      35.596901     -1.5302
-7      49.110298      54.109524      31.137421     -1.1092
-7      43.058331      49.655041      34.015980     -2.7945
-7      41.116585      53.820477      37.918167     -2.7425
-7      43.870529      52.036491      41.641926     -1.3502
-8      35.711967      49.798840      36.380161      7.2652
-8      39.497566      51.361576      35.945816      4.9632
-8      42.807346      50.777714      39.197414      5.0626
-8      43.481434      53.304131      34.768734      3.7972
-8      43.131130      50.942360      38.406097      4.9430
-8      47.386734      52.609528      33.829384      5.6548
-8      36.989437      51.209438      36.626244      5.6318

$$$$
