@<TRIPOS>MOLECULE
bindingdb_similar_1x70_processed:4
 48 50 0 0 0
SMALL
GASTEIGER

@<TRIPOS>ATOM
      1 C          34.4583   49.5060   35.8129 C.3     1  LIG1       -0.0434
      2 C          34.7125   50.6764   36.7736 C.3     1  LIG1        0.0242
      3 C          36.1349   51.2067   36.7928 C.2     1  LIG1        0.2157
      4 N          37.1067   50.3064   36.5215 N.am    1  LIG1       -0.2961
      5 C          36.8490   48.9334   36.0397 C.3     1  LIG1        0.0149
      6 C          35.4245   48.3910   36.2177 C.3     1  LIG1       -0.0367
      7 C          38.5146   50.7179   36.6401 C.3     1  LIG1        0.0579
      8 C          39.2113   50.9353   35.2808 C.3     1  LIG1        0.0001
      9 C          40.5202   51.7364   35.4403 C.3     1  LIG1        0.0684
     10 C          41.5847   51.0259   36.2560 C.2     1  LIG1        0.2214
     11 N          38.2933   51.6954   34.3680 N.4     1  LIG1        0.2222
     12 N          42.7207   51.7326   36.4462 N.am    1  LIG1       -0.2923
     13 O          41.4033   49.8995   36.6992 O.2     1  LIG1       -0.2754
     14 O          36.3383   52.3827   37.0625 O.2     1  LIG1       -0.2756
     15 C          43.0159   53.0474   35.8234 C.3     1  LIG1        0.0332
     16 C          44.1768   52.8768   34.8171 C.3     1  LIG1        0.0422
     17 C          43.7879   51.1678   37.2960 C.3     1  LIG1        0.0746
     18 C          45.0852   51.2859   36.5255 C.ar    1  LIG1        0.1512
     19 N          45.2450   52.0662   35.4239 N.ar    1  LIG1       -0.3048
     20 C          46.5324   51.9239   34.9950 C.ar    1  LIG1        0.2376
     21 N          47.1151   51.0989   35.8121 N.ar    1  LIG1       -0.1250
     22 N          46.2166   50.7019   36.7657 N.ar    1  LIG1       -0.1324
     23 C          47.1777   52.5876   33.7906 C.3     1  LIG1        0.4524
     24 F          46.5428   52.2199   32.6089 F       1  LIG1       -0.1632
     25 F          48.5163   52.2304   33.6692 F       1  LIG1       -0.1632
     26 F          47.1273   53.9746   33.8799 F       1  LIG1       -0.1632
     27 H          39.4518   49.8695   34.7846 H       1  LIG1        0.0870
     28 H          34.6730   49.8460   34.6824 H       1  LIG1        0.0270
     29 H          33.3241   49.1287   35.9198 H       1  LIG1        0.0270
     30 H          34.4328   50.3216   37.8853 H       1  LIG1        0.0358
     31 H          33.9799   51.5775   36.4712 H       1  LIG1        0.0358
     32 H          37.0854   48.9284   34.8630 H       1  LIG1        0.0464
     33 H          37.6037   48.1687   36.5739 H       1  LIG1        0.0464
     34 H          35.2623   47.4260   35.5231 H       1  LIG1        0.0280
     35 H          35.2419   48.0994   37.3673 H       1  LIG1        0.0280
     36 H          38.5528   51.7406   37.2657 H       1  LIG1        0.0520
     37 H          39.1168   49.8886   37.2632 H       1  LIG1        0.0520
     38 H          40.2342   52.7779   35.9633 H       1  LIG1        0.0415
     39 H          40.9455   51.9283   34.3344 H       1  LIG1        0.0415
     40 H          37.5065   51.2564   34.2402 H       1  LIG1        0.1997
     41 H          38.6590   51.8270   33.5451 H       1  LIG1        0.1997
     42 H          38.0871   52.5163   34.7019 H       1  LIG1        0.1997
     43 H          42.1151   53.6091   35.2694 H       1  LIG1        0.0482
     44 H          43.4036   53.7693   36.7001 H       1  LIG1        0.0482
     45 H          43.7691   52.3130   33.8393 H       1  LIG1        0.0508
     46 H          44.5991   53.9565   34.5083 H       1  LIG1        0.0508
     47 H          43.5740   50.0145   37.5480 H       1  LIG1        0.0545
     48 H          43.8665   51.7967   38.3151 H       1  LIG1        0.0545
@<TRIPOS>BOND
     1     1     2    1
     2     1     6    1
     3     1    28    1
     4     1    29    1
     5     2     3    1
     6     2    30    1
     7     2    31    1
     8     3     4   am
     9     3    14    2
    10     4     5    1
    11     4     7    1
    12     5     6    1
    13     5    32    1
    14     5    33    1
    15     6    34    1
    16     6    35    1
    17     7    36    1
    18     7    37    1
    19     8     7    1
    20     8     9    1
    21     8    11    1
    22     8    27    1
    23     9    10    1
    24     9    38    1
    25     9    39    1
    26    10    12   am
    27    10    13    2
    28    11    40    1
    29    11    41    1
    30    11    42    1
    31    12    15    1
    32    12    17    1
    33    15    16    1
    34    15    43    1
    35    15    44    1
    36    16    19    1
    37    16    45    1
    38    16    46    1
    39    17    47    1
    40    17    48    1
    41    18    17    1
    42    18    19   ar
    43    19    20   ar
    44    20    21   ar
    45    20    23    1
    46    21    22   ar
    47    22    18   ar
    48    23    24    1
    49    23    25    1
    50    23    26    1
