@<TRIPOS>MOLECULE
bindingdb_similar_1x70_processed:73
 60 63 0 0 0
SMALL
GASTEIGER

@<TRIPOS>ATOM
      1 C          34.4448   49.2623   36.3125 C.ar    1  LIG1        0.1611
      2 C          34.6246   50.5800   36.6658 C.ar    1  LIG1        0.0119
      3 C          35.8932   51.1158   36.7239 C.ar    1  LIG1        0.1296
      4 C          36.9922   50.3329   36.4291 C.ar    1  LIG1       -0.0040
      5 C          36.8079   49.0123   36.0812 C.ar    1  LIG1       -0.0175
      6 C          35.5409   48.4750   36.0193 C.ar    1  LIG1        0.1588
      7 F          35.3779   47.1904   35.6712 F       1  LIG1       -0.2025
      8 F          33.2065   48.7511   36.2530 F       1  LIG1       -0.2024
      9 F          36.0431   52.4040   37.0659 F       1  LIG1       -0.2051
     10 C          38.4035   50.9047   36.4672 C.3     1  LIG1        0.0187
     11 C          39.0729   51.0755   35.0840 C.3     1  LIG1       -0.0118
     12 C          40.4535   51.7536   35.2034 C.3     1  LIG1        0.0673
     13 N          38.2140   51.9293   34.1899 N.4     1  LIG1        0.2213
     14 C          41.4850   50.9716   35.9928 C.2     1  LIG1        0.2216
     15 N          42.6682   51.6038   36.1611 N.am    1  LIG1       -0.2892
     16 C          43.0237   52.8966   35.5172 C.3     1  LIG1        0.0335
     17 C          44.2480   52.6956   34.5988 C.3     1  LIG1        0.0422
     18 C          43.6782   50.9767   37.0432 C.3     1  LIG1        0.0898
     19 N          46.1772   50.6636   36.7937 N.ar    1  LIG1       -0.1321
     20 C          45.0460   51.1737   36.4186 C.ar    1  LIG1        0.1547
     21 N          45.2838   51.9494   35.3285 N.ar    1  LIG1       -0.3046
     22 C          46.6163   51.8779   35.0447 C.ar    1  LIG1        0.2377
     23 N          47.1527   51.1023   35.9381 N.ar    1  LIG1       -0.1250
     24 C          47.3458   52.5566   33.8979 C.3     1  LIG1        0.4524
     25 F          48.7142   52.3154   33.9490 F       1  LIG1       -0.1632
     26 F          47.1696   53.9360   33.9150 F       1  LIG1       -0.1632
     27 F          46.8889   52.0910   32.6694 F       1  LIG1       -0.1632
     28 O          41.2377   49.8592   36.4398 O.2     1  LIG1       -0.2754
     29 C          43.6076   51.5040   38.4942 C.3     1  LIG1       -0.0013
     30 C          42.3231   51.1651   39.2482 C.ar    1  LIG1       -0.0336
     31 C          41.2380   51.9975   39.0678 C.ar    1  LIG1       -0.0580
     32 C          40.0480   51.7566   39.7136 C.ar    1  LIG1       -0.0615
     33 C          39.9360   50.6772   40.5562 C.ar    1  LIG1       -0.0612
     34 C          41.0106   49.8387   40.7352 C.ar    1  LIG1       -0.0499
     35 C          42.2039   50.0671   40.0828 C.ar    1  LIG1        0.0580
     36 C          43.3432   49.0858   40.3291 C.3     1  LIG1        0.4177
     37 F          42.9159   47.9246   40.9658 F       1  LIG1       -0.1659
     38 F          44.3257   49.6562   41.1296 F       1  LIG1       -0.1659
     39 F          43.9489   48.6822   39.1431 F       1  LIG1       -0.1659
     40 H          33.8322   51.1516   36.8788 H       1  LIG1        0.0676
     41 H          37.5996   48.4406   35.8661 H       1  LIG1        0.0651
     42 H          38.4097   51.9707   37.0178 H       1  LIG1        0.0369
     43 H          39.0708   50.1601   37.1287 H       1  LIG1        0.0369
     44 H          39.2089   49.9955   34.5791 H       1  LIG1        0.0858
     45 H          40.2718   52.8188   35.7245 H       1  LIG1        0.0414
     46 H          40.8662   51.8875   34.0844 H       1  LIG1        0.0414
     47 H          37.3916   51.5601   34.0627 H       1  LIG1        0.1997
     48 H          38.5808   52.0422   33.3635 H       1  LIG1        0.1997
     49 H          38.0830   52.7583   34.5442 H       1  LIG1        0.1997
     50 H          42.1795   53.4432   34.8681 H       1  LIG1        0.0482
     51 H          43.3477   53.6627   36.3811 H       1  LIG1        0.0482
     52 H          43.9169   52.0653   33.6330 H       1  LIG1        0.0508
     53 H          44.6620   53.7681   34.2562 H       1  LIG1        0.0508
     54 H          43.4742   49.7950   37.0525 H       1  LIG1        0.0585
     55 H          44.5527   51.0710   39.0914 H       1  LIG1        0.0336
     56 H          43.7438   52.6959   38.4761 H       1  LIG1        0.0336
     57 H          41.3158   52.7839   38.4543 H       1  LIG1        0.0620
     58 H          39.2672   52.3647   39.5706 H       1  LIG1        0.0618
     59 H          39.0773   50.5020   41.0370 H       1  LIG1        0.0618
     60 H          40.9225   49.0525   41.3455 H       1  LIG1        0.0623
@<TRIPOS>BOND
     1     1     2   ar
     2     1     8    1
     3     2     3   ar
     4     2    40    1
     5     3     4   ar
     6     3     9    1
     7     4     5   ar
     8     4    10    1
     9     5     6   ar
    10     5    41    1
    11     6     1   ar
    12     6     7    1
    13    10    42    1
    14    10    43    1
    15    11    10    1
    16    11    12    1
    17    11    13    1
    18    11    44    1
    19    12    14    1
    20    12    45    1
    21    12    46    1
    22    13    47    1
    23    13    48    1
    24    13    49    1
    25    14    15   am
    26    14    28    2
    27    15    16    1
    28    15    18    1
    29    16    17    1
    30    16    50    1
    31    16    51    1
    32    17    21    1
    33    17    52    1
    34    17    53    1
    35    18    29    1
    36    18    54    1
    37    19    20   ar
    38    20    18    1
    39    20    21   ar
    40    21    22   ar
    41    22    23   ar
    42    22    24    1
    43    23    19   ar
    44    24    25    1
    45    24    26    1
    46    24    27    1
    47    29    30    1
    48    29    55    1
    49    29    56    1
    50    30    31   ar
    51    31    32   ar
    52    31    57    1
    53    32    33   ar
    54    32    58    1
    55    33    34   ar
    56    33    59    1
    57    34    35   ar
    58    34    60    1
    59    35    30   ar
    60    35    36    1
    61    36    37    1
    62    36    38    1
    63    36    39    1
