bindingdb_similar_1x70_processed:36
 OpenBabel04261912203D

 47 49  0  0  1  0  0  0  0  0999 V2000
   35.4638   48.4585   36.0891 C   0  0  0  0  0  0  0  0  0  0  0  0
   34.3624   49.2382   36.3694 C   0  0  0  0  0  0  0  0  0  0  0  0
   34.5279   50.5599   36.7104 C   0  0  0  0  0  0  0  0  0  0  0  0
   35.7915   51.1079   36.7678 C   0  0  0  0  0  0  0  0  0  0  0  0
   36.8989   50.3314   36.4857 C   0  0  0  0  0  0  0  0  0  0  0  0
   36.7266   49.0063   36.1513 C   0  0  0  0  0  0  0  0  0  0  0  0
   38.3062   50.9155   36.5262 C   0  0  0  0  0  0  0  0  0  0  0  0
   38.9835   51.0756   35.1452 C   0  0  2  0  0  0  0  0  0  0  0  0
   40.3573   51.7685   35.2641 C   0  0  0  0  0  0  0  0  0  0  0  0
   41.3876   51.0005   36.0680 C   0  0  0  0  0  0  0  0  0  0  0  0
   38.1228   51.9137   34.2429 N   0  3  0  0  0  0  0  0  0  0  0  0
   41.1451   49.8905   36.5219 O   0  0  0  0  0  0  0  0  0  0  0  0
   43.5792   51.0373   37.1261 C   0  0  0  0  0  0  0  0  0  0  0  0
   42.9169   52.9320   35.5895 C   0  0  0  0  0  0  0  0  0  0  0  0
   44.1424   52.7327   34.6703 C   0  0  0  0  0  0  0  0  0  0  0  0
   42.5632   51.6430   36.2403 N   0  0  0  0  0  0  0  0  0  0  0  0
   44.9465   51.2359   36.5072 C   0  0  0  0  0  0  0  0  0  0  0  0
   46.5143   51.9369   35.1306 C   0  0  0  0  0  0  0  0  0  0  0  0
   45.1814   52.0018   35.4095 N   0  0  0  0  0  0  0  0  0  0  0  0
   46.0801   50.7409   36.8931 N   0  0  0  0  0  0  0  0  0  0  0  0
   47.0546   51.1787   36.0357 N   0  0  0  0  0  0  0  0  0  0  0  0
   35.3116   47.1693   35.7535 F   0  0  0  0  0  0  0  0  0  0  0  0
   35.9305   52.4007   37.0984 F   0  0  0  0  0  0  0  0  0  0  0  0
   47.2403   52.6176   33.9829 C   0  0  0  0  0  0  0  0  0  0  0  0
   48.4564   51.8383   33.4484 C   0  0  0  0  0  0  0  0  0  0  0  0
   49.4214   51.6891   34.4383 F   0  0  0  0  0  0  0  0  0  0  0  0
   48.0902   50.5714   33.0057 F   0  0  0  0  0  0  0  0  0  0  0  0
   49.0369   52.5132   32.3801 F   0  0  0  0  0  0  0  0  0  0  0  0
   33.4447   48.8439   36.3249 H   0  0  0  0  0  0  0  0  0  0  0  0
   33.7294   51.1260   36.9155 H   0  0  0  0  0  0  0  0  0  0  0  0
   37.5238   48.4385   35.9471 H   0  0  0  0  0  0  0  0  0  0  0  0
   38.3016   51.9862   37.0692 H   0  0  0  0  0  0  0  0  0  0  0  0
   38.9804   50.1800   37.1924 H   0  0  0  0  0  0  0  0  0  0  0  0
   39.1246   49.9932   34.6451 H   0  0  0  0  0  0  0  0  0  0  0  0
   40.1611   52.8376   35.7736 H   0  0  0  0  0  0  0  0  0  0  0  0
   40.7734   51.8991   34.1455 H   0  0  0  0  0  0  0  0  0  0  0  0
   37.3064   51.5345   34.1209 H   0  0  0  0  0  0  0  0  0  0  0  0
   38.4928   52.0162   33.4189 H   0  0  0  0  0  0  0  0  0  0  0  0
   37.9866   52.7435   34.5889 H   0  0  0  0  0  0  0  0  0  0  0  0
   43.3759   49.8616   37.2514 H   0  0  0  0  0  0  0  0  0  0  0  0
   43.5401   51.5615   38.2045 H   0  0  0  0  0  0  0  0  0  0  0  0
   42.0707   53.4728   34.9378 H   0  0  0  0  0  0  0  0  0  0  0  0
   43.2380   53.6943   36.4584 H   0  0  0  0  0  0  0  0  0  0  0  0
   43.8185   52.0939   33.7070 H   0  0  0  0  0  0  0  0  0  0  0  0
   44.5641   53.8000   34.3211 H   0  0  0  0  0  0  0  0  0  0  0  0
   46.4643   52.7743   33.0808 H   0  0  0  0  0  0  0  0  0  0  0  0
   47.6177   53.6940   34.3559 H   0  0  0  0  0  0  0  0  0  0  0  0
  1  2  2  0  0  0  0
  1  6  1  0  0  0  0
  1 22  1  0  0  0  0
  2  3  1  0  0  0  0
  2 29  1  0  0  0  0
  3  4  2  0  0  0  0
  3 30  1  0  0  0  0
  4  5  1  0  0  0  0
  4 23  1  0  0  0  0
  5  6  2  0  0  0  0
  5  7  1  0  0  0  0
  6 31  1  0  0  0  0
  7 32  1  0  0  0  0
  7 33  1  0  0  0  0
  8  7  1  0  0  0  0
  8  9  1  0  0  0  0
  8 11  1  0  0  0  0
  8 34  1  6  0  0  0
  9 10  1  0  0  0  0
  9 35  1  0  0  0  0
  9 36  1  0  0  0  0
 10 12  2  0  0  0  0
 10 16  1  0  0  0  0
 11 37  1  0  0  0  0
 11 38  1  0  0  0  0
 11 39  1  0  0  0  0
 13 16  1  0  0  0  0
 13 17  1  0  0  0  0
 13 40  1  0  0  0  0
 13 41  1  0  0  0  0
 14 15  1  0  0  0  0
 14 42  1  0  0  0  0
 14 43  1  0  0  0  0
 15 19  1  0  0  0  0
 15 44  1  0  0  0  0
 15 45  1  0  0  0  0
 16 14  1  0  0  0  0
 18 21  2  0  0  0  0
 18 24  1  0  0  0  0
 19 17  1  0  0  0  0
 19 18  1  0  0  0  0
 20 17  2  0  0  0  0
 20 21  1  0  0  0  0
 24 25  1  0  0  0  0
 24 46  1  0  0  0  0
 24 47  1  0  0  0  0
 25 26  1  0  0  0  0
 25 27  1  0  0  0  0
 25 28  1  0  0  0  0
M  CHG  1  11   1
M  END
>  <Mean(IC50 fixed2)>
103

>  <First(BindingDB Ligand Name)>
Triazolopiperazine Analogue 28

>  <Concatenate(Target Name Assigned by Curator or DataSource)>
Dipeptidyl Peptidase IV (DPP-IV)

>  <First(Target Source Organism According to Curator or DataSource)>
Homo sapiens (human)

>  <First(Curation/DataSource)>
Curated from the literature by BindingDB

>  <First(Article DOI)>
10.1021/jm0493156

>  <Mean(PMID)>
15634008

>  <First(Authors)>
Kim, D; Wang, L; Beconi, M; Eiermann, GJ; Fisher, MH; He, H; Hickey, GJ; Kowalchick, JE; Leiting, B; Lyons, K; Marsilio, F; McCann, ME; Patel, RA; Petrov, A; Scapin, G; Patel, SB; Roy, RS; Wu, JK; Wyvratt, MJ; Zhang, BB; Zhu, L; Thornberry, NA; Weber, AE

>  <First(Institution)>
Merck Research Laboratories

>  <First(Link to Ligand in BindingDB)>
http://www.bindingdb.org/bind/chemsearch/marvin/MolStructure.jsp?monomerid=11164

>  <First(Link to Ligand-Target Pair in BindingDB)>
http://www.bindingdb.org/jsp/dbsearch/PrimarySearch_ki.jsp?energyterm=kJ/mole&tag=r21&monomerid=11164&enzyme=Dipeptidyl+Peptidase+IV+%28DPP-IV%29&column=ki&startPg=0&Increment=50&submit=Search

>  <Mean(PubChem CID)>
23645412

>  <Mean(PubChem SID)>
46511718

>  <First(ZINC ID of Ligand)>
ZINC13607033

>  <Concatenate*(UniProt (SwissProt) Entry Name of Target Chain)>
DPP4_HUMAN

>  <Mean(Number of Protein Chains in Target (>1 implies a multichain complex))>
1

>  <Median(pIC50)>
6.98716277529483

>  <Journal>
JMedChem2005

>  <Activity Classes>
6.98716277529483

>  <Conformer_cresset>
1

>  <Similarity_cresset>
0.794

>  <Favorite_cresset>
false

>  <Activity (Median(pIC50))_cresset>
6.99

>  <LE (Median(pIC50))_cresset>
0.349

>  <LipE (Median(pIC50))_cresset>
4.5

>  <Tags_cresset>
test

>  <Confs_cresset>
14

>  <Conf#_cresset>
1

>  <Alns_cresset>
10

>  <MW_cresset>
404.4

>  <#Atoms_cresset>
28

>  <SlogP_cresset>
2.5

>  <TPSA_cresset>
78.7

>  <Flexibility_cresset>
5.9

>  <#RB_cresset>
7

>  <Rof5_cresset>
0

>  <Filename_cresset>
bindingdb_similar_1x70_processed.sdf

>  <Notes_cresset>
28

>  <Selected Alignment_cresset>
true

>  <Alignment Cluster Centre_cresset>
true

>  <_cresset_fieldpoints>
-5      47.775837      49.941780      37.179489    -13.9976
-5      40.565113      48.216728      36.866638     -7.6148
-5      36.514282      48.673973      39.274761     -1.5132
-6      31.503256      50.384300      36.642323      4.5496
-6      44.618782      53.869972      32.117012     11.2132
-6      42.044235      53.494461      32.730881     12.1391
-7      31.173304      50.199211      36.984760     -1.0149
-7      37.050755      49.348724      32.953377     -2.3912
-7      35.350304      50.318863      33.243160     -2.4171
-7      36.083035      49.083260      39.538006     -2.0485
-7      40.763680      52.562523      38.418259     -2.6340
-7      38.344154      54.483063      36.390118     -2.0533
-7      39.830830      54.372139      33.555023     -1.8731
-7      40.070698      50.300201      32.165192     -1.5146
-7      41.800087      53.337868      32.331482     -1.6515
-7      43.025421      49.641693      34.108589     -2.6760
-7      39.951569      47.945595      36.057941     -2.5459
-7      48.408775      51.514687      37.841000     -1.5925
-7      45.736595      54.689461      36.736511     -2.1058
-7      47.651524      48.936134      35.905350     -1.9664
-7      48.583588      53.686691      36.969608     -1.4782
-7      46.020061      55.374374      32.853428     -1.5091
-7      51.308857      50.034325      32.202312     -1.1081
-7      44.771965      49.665810      33.501385     -2.2385
-7      49.845627      54.978043      34.532867     -1.3602
-8      35.634880      49.786491      36.428120      7.2379
-8      39.414848      51.331314      35.995701      4.9347
-8      43.351627      53.313316      34.787476      3.7801
-8      44.086334      50.883629      37.456600      2.7916
-8      36.913589      51.170464      36.692291      5.6098
-8      48.318230      51.930031      33.496628      6.0518

$$$$
