bindingdb_similar_1x70_processed:17
 OpenBabel04261912203D

 44 46  0  0  1  0  0  0  0  0999 V2000
   34.4701   49.2623   36.4778 C   0  0  0  0  0  0  0  0  0  0  0  0
   34.6306   50.6149   36.6770 C   0  0  0  0  0  0  0  0  0  0  0  0
   35.8936   51.1623   36.6853 C   0  0  0  0  0  0  0  0  0  0  0  0
   36.9981   50.3575   36.5035 C   0  0  0  0  0  0  0  0  0  0  0  0
   36.8315   49.0090   36.2818 C   0  0  0  0  0  0  0  0  0  0  0  0
   35.5696   48.4616   36.2641 C   0  0  0  0  0  0  0  0  0  0  0  0
   38.4004   50.9390   36.5755 C   0  0  0  0  0  0  0  0  0  0  0  0
   39.0688   51.1028   35.1915 C   0  0  1  0  0  0  0  0  0  0  0  0
   38.2103   51.9530   34.2948 N   0  3  0  0  0  0  0  0  0  0  0  0
   40.4512   51.7753   35.3081 C   0  0  0  0  0  0  0  0  0  0  0  0
   41.4811   50.9657   36.0697 C   0  0  0  0  0  0  0  0  0  0  0  0
   41.2221   49.8473   36.4939 O   0  0  0  0  0  0  0  0  0  0  0  0
   42.6713   51.5827   36.2398 N   0  0  0  0  0  0  0  0  0  0  0  0
   43.0414   52.8808   35.6179 C   0  0  0  0  0  0  0  0  0  0  0  0
   44.2534   52.6882   34.6780 C   0  0  0  0  0  0  0  0  0  0  0  0
   43.6914   50.9459   37.0986 C   0  0  0  0  0  0  0  0  0  0  0  0
   45.0549   51.1344   36.4664 C   0  0  0  0  0  0  0  0  0  0  0  0
   45.2916   51.9233   35.3851 N   0  0  0  0  0  0  0  0  0  0  0  0
   46.6228   51.8462   35.0938 C   0  0  0  0  0  0  0  0  0  0  0  0
   47.1567   51.0544   35.9745 N   0  0  0  0  0  0  0  0  0  0  0  0
   46.1837   50.6122   36.8296 N   0  0  0  0  0  0  0  0  0  0  0  0
   47.3583   52.5323   33.9552 C   0  0  0  0  0  0  0  0  0  0  0  0
   46.8961   52.0876   32.7213 F   0  0  0  0  0  0  0  0  0  0  0  0
   48.7239   52.2738   34.0017 F   0  0  0  0  0  0  0  0  0  0  0  0
   47.2005   53.9136   33.9896 F   0  0  0  0  0  0  0  0  0  0  0  0
   36.0943   52.8683   36.9519 Cl  0  0  0  0  0  0  0  0  0  0  0  0
   32.8807   48.5611   36.5131 Cl  0  0  0  0  0  0  0  0  0  0  0  0
   33.8315   51.1975   36.8253 H   0  0  0  0  0  0  0  0  0  0  0  0
   37.6305   48.4241   36.1413 H   0  0  0  0  0  0  0  0  0  0  0  0
   35.4514   47.4816   36.1063 H   0  0  0  0  0  0  0  0  0  0  0  0
   38.3676   52.0127   37.1117 H   0  0  0  0  0  0  0  0  0  0  0  0
   39.0643   50.2064   37.2532 H   0  0  0  0  0  0  0  0  0  0  0  0
   39.1982   50.0193   34.6926 H   0  0  0  0  0  0  0  0  0  0  0  0
   37.3852   51.5888   34.1788 H   0  0  0  0  0  0  0  0  0  0  0  0
   38.5712   52.0495   33.4653 H   0  0  0  0  0  0  0  0  0  0  0  0
   38.0872   52.7877   34.6364 H   0  0  0  0  0  0  0  0  0  0  0  0
   40.2764   52.8284   35.8563 H   0  0  0  0  0  0  0  0  0  0  0  0
   40.8507   51.9334   34.1875 H   0  0  0  0  0  0  0  0  0  0  0  0
   42.1954   53.4537   34.9938 H   0  0  0  0  0  0  0  0  0  0  0  0
   43.3856   53.6114   36.5056 H   0  0  0  0  0  0  0  0  0  0  0  0
   43.9089   52.0761   33.7050 H   0  0  0  0  0  0  0  0  0  0  0  0
   44.6724   53.7628   34.3480 H   0  0  0  0  0  0  0  0  0  0  0  0
   43.4699   49.7724   37.2126 H   0  0  0  0  0  0  0  0  0  0  0  0
   43.6777   51.4620   38.1819 H   0  0  0  0  0  0  0  0  0  0  0  0
  1  2  2  0  0  0  0
  1 27  1  0  0  0  0
  2  3  1  0  0  0  0
  2 28  1  0  0  0  0
  3  4  2  0  0  0  0
  3 26  1  0  0  0  0
  4  5  1  0  0  0  0
  4  7  1  0  0  0  0
  5  6  2  0  0  0  0
  5 29  1  0  0  0  0
  6  1  1  0  0  0  0
  6 30  1  0  0  0  0
  7 31  1  0  0  0  0
  7 32  1  0  0  0  0
  8  7  1  0  0  0  0
  8  9  1  0  0  0  0
  8 10  1  0  0  0  0
  8 33  1  6  0  0  0
  9 34  1  0  0  0  0
  9 35  1  0  0  0  0
  9 36  1  0  0  0  0
 10 11  1  0  0  0  0
 10 37  1  0  0  0  0
 10 38  1  0  0  0  0
 11 12  2  0  0  0  0
 11 13  1  0  0  0  0
 13 14  1  0  0  0  0
 13 16  1  0  0  0  0
 14 15  1  0  0  0  0
 14 39  1  0  0  0  0
 14 40  1  0  0  0  0
 15 18  1  0  0  0  0
 15 41  1  0  0  0  0
 15 42  1  0  0  0  0
 16 43  1  0  0  0  0
 16 44  1  0  0  0  0
 17 16  1  0  0  0  0
 17 18  1  0  0  0  0
 18 19  1  0  0  0  0
 19 20  2  0  0  0  0
 19 22  1  0  0  0  0
 20 21  1  0  0  0  0
 21 17  2  0  0  0  0
 22 23  1  0  0  0  0
 22 24  1  0  0  0  0
 22 25  1  0  0  0  0
M  CHG  1   9   1
M  END
>  <Mean(IC50 fixed2)>
23

>  <First(BindingDB Ligand Name)>
CHEMBL235120

>  <Concatenate(Target Name Assigned by Curator or DataSource)>
Dipeptidyl Peptidase IV (DPP-IV)

>  <First(Target Source Organism According to Curator or DataSource)>
Homo sapiens

>  <First(Curation/DataSource)>
ChEMBL

>  <First(Article DOI)>
10.1016/j.bmcl.2007.03.098

>  <Mean(PMID)>
17434732

>  <First(Authors)>
Kim, D; Kowalchick, JE; Edmondson, SD; Mastracchio, A; Xu, J; Eiermann, GJ; Leiting, B; Wu, JK; Pryor, KD; Patel, RA; He, H; Lyons, KA; Thornberry, NA; Weber, AE

>  <First(Institution)>
Merck Research Laboratories<span class=m1fontSize>Curated by</span> <a href=http://www.ebi.ac.uk/chembl/>ChEMBL</a>

>  <First(Link to Ligand in BindingDB)>
http://www.bindingdb.org/bind/chemsearch/marvin/MolStructure.jsp?monomerid=50210657

>  <First(Link to Ligand-Target Pair in BindingDB)>
http://www.bindingdb.org/jsp/dbsearch/PrimarySearch_ki.jsp?energyterm=kJ/mole&tag=r21&monomerid=50210657&enzyme=Dipeptidyl+Peptidase+IV+%28DPP-IV%29&column=ki&startPg=0&Increment=50&submit=Search

>  <Mean(PubChem CID)>
44431204

>  <Mean(PubChem SID)>
104087144

>  <First(ZINC ID of Ligand)>
ZINC28820815

>  <Concatenate*(UniProt (SwissProt) Entry Name of Target Chain)>
DPP4_HUMAN

>  <Mean(Number of Protein Chains in Target (>1 implies a multichain complex))>
1

>  <Median(pIC50)>
7.63827216398241

>  <Journal>
BiorgMedChemLett2007

>  <Activity Classes>
7.63827216398241

>  <Conformer_cresset>
1

>  <Similarity_cresset>
0.837

>  <Favorite_cresset>
false

>  <Activity (Median(pIC50))_cresset>
7.64

>  <LE (Median(pIC50))_cresset>
0.396

>  <LipE (Median(pIC50))_cresset>
4.7

>  <Tags_cresset>
test

>  <Confs_cresset>
1

>  <Conf#_cresset>
1

>  <Alns_cresset>
1

>  <MW_cresset>
423.2

>  <#Atoms_cresset>
27

>  <SlogP_cresset>
3

>  <TPSA_cresset>
78.7

>  <Flexibility_cresset>
4.9

>  <#RB_cresset>
6

>  <Rof5_cresset>
0

>  <Filename_cresset>
bindingdb_similar_1x70_processed.sdf

>  <Notes_cresset>
37

>  <Selected Alignment_cresset>
true

>  <Alignment Cluster Centre_cresset>
false

>  <_cresset_fieldpoints>
-5      36.076942      49.200233      39.390022     -2.5073
-5      47.844055      49.831963      37.208233    -12.3071
-5      40.544930      48.209427      36.793274     -7.3560
-6      42.054604      53.473846      32.796776     11.4273
-6      32.671734      53.024868      36.234032      2.7629
-6      37.164280      46.074215      35.209332      3.1476
-6      30.904842      48.205063      34.532669      1.7127
-7      35.575348      50.163048      33.264053     -2.3366
-7      37.327087      51.703362      39.631920     -1.9367
-7      35.407429      53.049179      34.006836     -2.1148
-7      40.034050      47.930824      36.036194     -2.4691
-7      36.149483      49.491257      39.673424     -1.9495
-7      40.928375      52.475388      38.475327     -2.6147
-7      43.077545      49.639381      34.051914     -2.6954
-7      41.921299      53.356277      32.375626     -1.6853
-7      40.181221      50.322784      32.219475     -1.5213
-7      39.938667      54.415611      33.654503     -1.8682
-7      38.510155      54.517227      36.442810     -2.2410
-7      44.552223      54.146278      31.767067     -1.5809
-7      47.983826      51.931423      38.063019     -1.4896
-7      47.284988      48.685364      35.546692     -1.4957
-7      45.823349      54.442696      37.016331     -2.3062
-7      49.091698      54.138840      31.225817     -1.1103
-7      33.665039      45.685974      35.969131     -1.2915
-7      37.057167      49.415916      33.047401     -2.2997
-8      35.737686      49.812599      36.483658      7.2109
-8      36.857162      51.580704      36.721741      5.8024
-8      39.503334      51.341225      36.041634      4.9438
-8      43.478485      53.283531      34.824600      3.7898
-8      47.381268      52.576664      33.887665      5.6559
-8      44.199963      50.786819      37.428307      2.7925
-8      34.267757      49.170734      36.487465      5.6162

$$$$
