bindingdb_similar_1x70_processed:6
 OpenBabel04261912203D

 44 46  0  0  1  0  0  0  0  0999 V2000
   34.4472   49.2633   36.3130 C   0  0  0  0  0  0  0  0  0  0  0  0
   35.5399   48.4776   36.0204 C   0  0  0  0  0  0  0  0  0  0  0  0
   36.8064   49.0110   36.0802 C   0  0  0  0  0  0  0  0  0  0  0  0
   36.9903   50.3315   36.4255 C   0  0  0  0  0  0  0  0  0  0  0  0
   35.8952   51.1142   36.7218 C   0  0  0  0  0  0  0  0  0  0  0  0
   34.6274   50.5811   36.6685 C   0  0  0  0  0  0  0  0  0  0  0  0
   38.3982   50.9118   36.4658 C   0  0  0  0  0  0  0  0  0  0  0  0
   39.0754   51.0733   35.0851 C   0  0  1  0  0  0  0  0  0  0  0  0
   38.2194   51.9271   34.1940 N   0  3  0  0  0  0  0  0  0  0  0  0
   40.4543   51.7548   35.2059 C   0  0  0  0  0  0  0  0  0  0  0  0
   41.4841   50.9702   35.9958 C   0  0  0  0  0  0  0  0  0  0  0  0
   41.2345   49.8579   36.4401 O   0  0  0  0  0  0  0  0  0  0  0  0
   42.6657   51.6013   36.1692 N   0  0  0  0  0  0  0  0  0  0  0  0
   43.0263   52.8938   35.5306 C   0  0  0  0  0  0  0  0  0  0  0  0
   44.2444   52.6927   34.6029 C   0  0  0  0  0  0  0  0  0  0  0  0
   43.6810   50.9790   37.0446 C   0  0  0  0  0  0  0  0  0  0  0  0
   45.0470   51.1725   36.4215 C   0  0  0  0  0  0  0  0  0  0  0  0
   45.2822   51.9478   35.3307 N   0  0  0  0  0  0  0  0  0  0  0  0
   46.6143   51.8780   35.0454 C   0  0  0  0  0  0  0  0  0  0  0  0
   47.1519   51.1033   35.9391 N   0  0  0  0  0  0  0  0  0  0  0  0
   46.1784   50.6647   36.7970 N   0  0  0  0  0  0  0  0  0  0  0  0
   47.3435   52.5557   33.8974 C   0  0  0  0  0  0  0  0  0  0  0  0
   46.8879   52.0882   32.6691 F   0  0  0  0  0  0  0  0  0  0  0  0
   47.1668   53.9352   33.9114 F   0  0  0  0  0  0  0  0  0  0  0  0
   48.7125   52.3164   33.9477 F   0  0  0  0  0  0  0  0  0  0  0  0
   32.8434   48.5924   36.2355 Cl  0  0  0  0  0  0  0  0  0  0  0  0
   35.4128   47.5197   35.7642 H   0  0  0  0  0  0  0  0  0  0  0  0
   37.5981   48.4387   35.8675 H   0  0  0  0  0  0  0  0  0  0  0  0
   36.0220   52.0730   36.9759 H   0  0  0  0  0  0  0  0  0  0  0  0
   33.8355   51.1524   36.8857 H   0  0  0  0  0  0  0  0  0  0  0  0
   38.3814   51.9841   37.0063 H   0  0  0  0  0  0  0  0  0  0  0  0
   39.0666   50.1710   37.1315 H   0  0  0  0  0  0  0  0  0  0  0  0
   39.2091   49.9946   34.5753 H   0  0  0  0  0  0  0  0  0  0  0  0
   37.4060   51.5475   34.0563 H   0  0  0  0  0  0  0  0  0  0  0  0
   38.5947   52.0516   33.3757 H   0  0  0  0  0  0  0  0  0  0  0  0
   38.0763   52.7478   34.5578 H   0  0  0  0  0  0  0  0  0  0  0  0
   40.2651   52.8164   35.7331 H   0  0  0  0  0  0  0  0  0  0  0  0
   40.8685   51.8981   34.0880 H   0  0  0  0  0  0  0  0  0  0  0  0
   42.1813   53.4500   34.8901 H   0  0  0  0  0  0  0  0  0  0  0  0
   43.3610   53.6436   36.4052 H   0  0  0  0  0  0  0  0  0  0  0  0
   43.9126   52.0656   33.6348 H   0  0  0  0  0  0  0  0  0  0  0  0
   44.6606   53.7644   34.2619 H   0  0  0  0  0  0  0  0  0  0  0  0
   43.4686   49.8038   37.1594 H   0  0  0  0  0  0  0  0  0  0  0  0
   43.6511   51.4937   38.1279 H   0  0  0  0  0  0  0  0  0  0  0  0
  1  2  2  0  0  0  0
  1 26  1  0  0  0  0
  2  3  1  0  0  0  0
  2 27  1  0  0  0  0
  3  4  2  0  0  0  0
  3 28  1  0  0  0  0
  4  5  1  0  0  0  0
  4  7  1  0  0  0  0
  5  6  2  0  0  0  0
  5 29  1  0  0  0  0
  6  1  1  0  0  0  0
  6 30  1  0  0  0  0
  7 31  1  0  0  0  0
  7 32  1  0  0  0  0
  8  7  1  0  0  0  0
  8  9  1  0  0  0  0
  8 10  1  0  0  0  0
  8 33  1  6  0  0  0
  9 34  1  0  0  0  0
  9 35  1  0  0  0  0
  9 36  1  0  0  0  0
 10 11  1  0  0  0  0
 10 37  1  0  0  0  0
 10 38  1  0  0  0  0
 11 12  2  0  0  0  0
 11 13  1  0  0  0  0
 13 14  1  0  0  0  0
 13 16  1  0  0  0  0
 14 15  1  0  0  0  0
 14 39  1  0  0  0  0
 14 40  1  0  0  0  0
 15 18  1  0  0  0  0
 15 41  1  0  0  0  0
 15 42  1  0  0  0  0
 16 43  1  0  0  0  0
 16 44  1  0  0  0  0
 17 16  1  0  0  0  0
 17 18  1  0  0  0  0
 18 19  1  0  0  0  0
 19 20  2  0  0  0  0
 19 22  1  0  0  0  0
 20 21  1  0  0  0  0
 21 17  2  0  0  0  0
 22 23  1  0  0  0  0
 22 24  1  0  0  0  0
 22 25  1  0  0  0  0
M  CHG  1   9   1
M  END
>  <Mean(IC50 fixed2)>
264

>  <First(BindingDB Ligand Name)>
CHEMBL243231

>  <Concatenate(Target Name Assigned by Curator or DataSource)>
Dipeptidyl Peptidase IV (DPP-IV)

>  <First(Target Source Organism According to Curator or DataSource)>
Homo sapiens

>  <First(Curation/DataSource)>
ChEMBL

>  <First(Article DOI)>
10.1016/j.bmcl.2007.03.098

>  <Mean(PMID)>
17434732

>  <First(Authors)>
Kim, D; Kowalchick, JE; Edmondson, SD; Mastracchio, A; Xu, J; Eiermann, GJ; Leiting, B; Wu, JK; Pryor, KD; Patel, RA; He, H; Lyons, KA; Thornberry, NA; Weber, AE

>  <First(Institution)>
Merck Research Laboratories<span class=m1fontSize>Curated by</span> <a href=http://www.ebi.ac.uk/chembl/>ChEMBL</a>

>  <First(Link to Ligand in BindingDB)>
http://www.bindingdb.org/bind/chemsearch/marvin/MolStructure.jsp?monomerid=50210660

>  <First(Link to Ligand-Target Pair in BindingDB)>
http://www.bindingdb.org/jsp/dbsearch/PrimarySearch_ki.jsp?energyterm=kJ/mole&tag=r21&monomerid=50210660&enzyme=Dipeptidyl+Peptidase+IV+%28DPP-IV%29&column=ki&startPg=0&Increment=50&submit=Search

>  <Mean(PubChem CID)>
44431201

>  <Mean(PubChem SID)>
104087147

>  <First(ZINC ID of Ligand)>
ZINC28820803

>  <Concatenate*(UniProt (SwissProt) Entry Name of Target Chain)>
DPP4_HUMAN

>  <Mean(Number of Protein Chains in Target (>1 implies a multichain complex))>
1

>  <Median(pIC50)>
6.57839607313017

>  <Journal>
BiorgMedChemLett2007

>  <Activity Classes>
6.57839607313017

>  <Conformer_cresset>
1

>  <Similarity_cresset>
0.830

>  <Favorite_cresset>
false

>  <Activity (Median(pIC50))_cresset>
6.58

>  <LE (Median(pIC50))_cresset>
0.354

>  <LipE (Median(pIC50))_cresset>
4.3

>  <Tags_cresset>
training

>  <Confs_cresset>
2

>  <Conf#_cresset>
1

>  <Alns_cresset>
2

>  <MW_cresset>
388.8

>  <#Atoms_cresset>
26

>  <SlogP_cresset>
2.3

>  <TPSA_cresset>
78.7

>  <Flexibility_cresset>
4.9

>  <#RB_cresset>
6

>  <Rof5_cresset>
0

>  <Filename_cresset>
bindingdb_similar_1x70_processed.sdf

>  <Notes_cresset>
35

>  <Selected Alignment_cresset>
true

>  <Alignment Cluster Centre_cresset>
true

>  <_cresset_fieldpoints>
-5      36.083862      48.848885      39.139778     -3.3279
-5      40.493206      48.235630      36.672916     -7.7475
-5      47.841503      49.895844      37.189758    -12.3074
-6      42.047413      53.448826      32.700352     11.5890
-6      37.223179      46.291306      34.584042      2.7990
-6      30.493113      48.248394      34.685005      1.4375
-7      40.032696      47.930981      35.974506     -2.4853
-7      37.336697      54.202740      36.425915     -1.9796
-7      35.508682      53.171936      34.241749     -1.8475
-7      35.354946      50.443291      33.204487     -2.2534
-7      40.913769      52.529842      38.362892     -2.5957
-7      41.931026      53.328186      32.274788     -1.6889
-7      39.946468      54.389957      33.541409     -1.8626
-7      40.143761      50.326267      32.091953     -1.5151
-7      44.528782      54.122360      31.674911     -1.5840
-7      47.961864      52.005188      38.023952     -1.4861
-7      49.048130      54.148342      31.142294     -1.1104
-7      43.106052      49.625961      34.010178     -2.7018
-7      47.286308      48.724392      35.534035     -1.4941
-7      45.788029      54.495132      36.925575     -2.3048
-7      37.203495      49.378307      32.859013     -2.2102
-7      36.119766      49.006199      39.482925     -1.8646
-8      35.723015      49.799435      36.369484      7.1971
-8      39.513409      51.319176      35.932625      4.9233
-8      43.465275      53.285061      34.738148      3.7914
-8      44.189011      50.825157      37.378414      2.7918
-8      47.366806      52.600842      33.827999      5.6565
-8      34.241016      49.174385      36.303108      5.6013

$$$$
