bindingdb_similar_1x70_processed:74
 OpenBabel04261912203D

 60 63  0  0  1  0  0  0  0  0999 V2000
   34.4432   49.2507   36.2887 C   0  0  0  0  0  0  0  0  0  0  0  0
   34.6162   50.5680   36.6479 C   0  0  0  0  0  0  0  0  0  0  0  0
   35.8822   51.1092   36.7093 C   0  0  0  0  0  0  0  0  0  0  0  0
   36.9846   50.3322   36.4114 C   0  0  0  0  0  0  0  0  0  0  0  0
   36.8074   49.0111   36.0604 C   0  0  0  0  0  0  0  0  0  0  0  0
   35.5433   48.4687   35.9958 C   0  0  0  0  0  0  0  0  0  0  0  0
   38.3912   50.9153   36.4492 C   0  0  0  0  0  0  0  0  0  0  0  0
   39.0560   51.0920   35.0641 C   0  0  2  0  0  0  0  0  0  0  0  0
   40.4375   51.7674   35.1899 C   0  0  0  0  0  0  0  0  0  0  0  0
   38.1977   51.9449   34.1703 N   0  3  0  0  0  0  0  0  0  0  0  0
   41.4650   50.9668   35.9675 C   0  0  0  0  0  0  0  0  0  0  0  0
   42.6603   51.5772   36.1291 N   0  0  0  0  0  0  0  0  0  0  0  0
   41.2018   49.8577   36.4137 O   0  0  0  0  0  0  0  0  0  0  0  0
   43.0206   52.8817   35.5080 C   0  0  0  0  0  0  0  0  0  0  0  0
   44.2591   52.7334   34.5957 C   0  0  0  0  0  0  0  0  0  0  0  0
   43.6666   50.9133   36.9907 C   0  0  1  0  0  0  0  0  0  0  0  0
   45.0443   51.1676   36.4087 C   0  0  0  0  0  0  0  0  0  0  0  0
   45.2640   51.9837   35.3573 N   0  0  0  0  0  0  0  0  0  0  0  0
   46.5974   51.9895   35.1107 N   0  0  0  0  0  0  0  0  0  0  0  0
   47.1264   51.2010   36.0043 C   0  0  0  0  0  0  0  0  0  0  0  0
   46.1943   50.6757   36.8272 N   0  0  0  0  0  0  0  0  0  0  0  0
   36.0281   52.3965   37.0569 F   0  0  0  0  0  0  0  0  0  0  0  0
   33.2074   48.7354   36.2238 F   0  0  0  0  0  0  0  0  0  0  0  0
   35.3863   47.1843   35.6434 F   0  0  0  0  0  0  0  0  0  0  0  0
   48.6095   50.9107   36.1168 C   0  0  0  0  0  0  0  0  0  0  0  0
   49.1938   51.6761   37.1196 F   0  0  0  0  0  0  0  0  0  0  0  0
   49.2804   51.1841   34.9301 F   0  0  0  0  0  0  0  0  0  0  0  0
   48.8346   49.5744   36.4254 F   0  0  0  0  0  0  0  0  0  0  0  0
   43.6053   51.3807   38.4609 C   0  0  0  0  0  0  0  0  0  0  0  0
   42.3100   51.1434   39.2257 C   0  0  0  0  0  0  0  0  0  0  0  0
   42.2080   50.0703   40.0826 C   0  0  0  0  0  0  0  0  0  0  0  0
   41.0654   49.8786   40.8254 C   0  0  0  0  0  0  0  0  0  0  0  0
   40.0103   50.7564   40.7166 C   0  0  0  0  0  0  0  0  0  0  0  0
   40.1003   51.8152   39.8408 C   0  0  0  0  0  0  0  0  0  0  0  0
   41.2440   52.0078   39.1001 C   0  0  0  0  0  0  0  0  0  0  0  0
   38.7763   50.5704   41.5814 C   0  0  0  0  0  0  0  0  0  0  0  0
   38.9893   51.1028   42.8501 F   0  0  0  0  0  0  0  0  0  0  0  0
   37.6575   51.2062   41.0516 F   0  0  0  0  0  0  0  0  0  0  0  0
   38.4513   49.2276   41.7440 F   0  0  0  0  0  0  0  0  0  0  0  0
   33.8206   51.1348   36.8622 H   0  0  0  0  0  0  0  0  0  0  0  0
   37.6023   48.4439   35.8452 H   0  0  0  0  0  0  0  0  0  0  0  0
   38.3908   51.9786   37.0056 H   0  0  0  0  0  0  0  0  0  0  0  0
   39.0650   50.1720   37.1064 H   0  0  0  0  0  0  0  0  0  0  0  0
   39.1902   50.0138   34.5540 H   0  0  0  0  0  0  0  0  0  0  0  0
   40.8460   51.9147   34.0707 H   0  0  0  0  0  0  0  0  0  0  0  0
   40.2620   52.8275   35.7259 H   0  0  0  0  0  0  0  0  0  0  0  0
   37.3750   51.5792   34.0464 H   0  0  0  0  0  0  0  0  0  0  0  0
   38.5612   52.0524   33.3434 H   0  0  0  0  0  0  0  0  0  0  0  0
   38.0695   52.7747   34.5195 H   0  0  0  0  0  0  0  0  0  0  0  0
   42.1786   53.4363   34.8633 H   0  0  0  0  0  0  0  0  0  0  0  0
   43.3198   53.6294   36.3965 H   0  0  0  0  0  0  0  0  0  0  0  0
   43.9625   52.1275   33.6029 H   0  0  0  0  0  0  0  0  0  0  0  0
   44.6855   53.8158   34.3040 H   0  0  0  0  0  0  0  0  0  0  0  0
   43.4803   49.7286   36.9641 H   0  0  0  0  0  0  0  0  0  0  0  0
   44.4945   50.8295   39.0509 H   0  0  0  0  0  0  0  0  0  0  0  0
   43.8472   52.5555   38.4857 H   0  0  0  0  0  0  0  0  0  0  0  0
   42.9736   49.4341   40.1753 H   0  0  0  0  0  0  0  0  0  0  0  0
   41.0051   49.1041   41.4546 H   0  0  0  0  0  0  0  0  0  0  0  0
   39.3348   52.4518   39.7495 H   0  0  0  0  0  0  0  0  0  0  0  0
   41.3059   52.7869   38.4759 H   0  0  0  0  0  0  0  0  0  0  0  0
  1  2  2  0  0  0  0
  1 23  1  0  0  0  0
  2  3  1  0  0  0  0
  2 40  1  0  0  0  0
  3  4  2  0  0  0  0
  3 22  1  0  0  0  0
  4  5  1  0  0  0  0
  4  7  1  0  0  0  0
  5  6  2  0  0  0  0
  5 41  1  0  0  0  0
  6  1  1  0  0  0  0
  6 24  1  0  0  0  0
  7  8  1  0  0  0  0
  7 42  1  0  0  0  0
  7 43  1  0  0  0  0
  8  9  1  0  0  0  0
  8 10  1  0  0  0  0
  8 44  1  6  0  0  0
  9 11  1  0  0  0  0
  9 45  1  0  0  0  0
  9 46  1  0  0  0  0
 10 47  1  0  0  0  0
 10 48  1  0  0  0  0
 10 49  1  0  0  0  0
 11 12  1  0  0  0  0
 11 13  2  0  0  0  0
 12 14  1  0  0  0  0
 12 16  1  0  0  0  0
 14 15  1  0  0  0  0
 14 50  1  0  0  0  0
 14 51  1  0  0  0  0
 15 18  1  0  0  0  0
 15 52  1  0  0  0  0
 15 53  1  0  0  0  0
 16 29  1  0  0  0  0
 16 54  1  6  0  0  0
 17 16  1  0  0  0  0
 17 18  1  0  0  0  0
 18 19  1  0  0  0  0
 19 20  2  0  0  0  0
 20 21  1  0  0  0  0
 20 25  1  0  0  0  0
 21 17  2  0  0  0  0
 25 26  1  0  0  0  0
 25 27  1  0  0  0  0
 25 28  1  0  0  0  0
 29 30  1  0  0  0  0
 29 55  1  0  0  0  0
 29 56  1  0  0  0  0
 30 31  2  0  0  0  0
 31 32  1  0  0  0  0
 31 57  1  0  0  0  0
 32 33  2  0  0  0  0
 32 58  1  0  0  0  0
 33 34  1  0  0  0  0
 33 36  1  0  0  0  0
 34 35  2  0  0  0  0
 34 59  1  0  0  0  0
 35 30  1  0  0  0  0
 35 60  1  0  0  0  0
 36 37  1  0  0  0  0
 36 38  1  0  0  0  0
 36 39  1  0  0  0  0
M  CHG  1  10   1
M  END
>  <Mean(IC50 fixed2)>
4

>  <First(BindingDB Ligand Name)>
CHEMBL250999

>  <Concatenate(Target Name Assigned by Curator or DataSource)>
Dipeptidyl Peptidase IV (DPP-IV)

>  <First(Target Source Organism According to Curator or DataSource)>
Homo sapiens

>  <First(Curation/DataSource)>
ChEMBL

>  <First(Article DOI)>
10.1016/j.bmcl.2007.07.100

>  <Mean(PMID)>
17827003

>  <First(Authors)>
Kowalchick, JE; Leiting, B; Pryor, KD; Marsilio, F; Wu, JK; He, H; Lyons, KA; Eiermann, GJ; Petrov, A; Scapin, G; Patel, RA; Thornberry, NA; Weber, AE; Kim, D

>  <First(Institution)>
Merck Research Laboratories<span class=m1fontSize>Curated by</span> <a href=http://www.ebi.ac.uk/chembl/>ChEMBL</a>

>  <First(Link to Ligand in BindingDB)>
http://www.bindingdb.org/bind/chemsearch/marvin/MolStructure.jsp?monomerid=50221454

>  <First(Link to Ligand-Target Pair in BindingDB)>
http://www.bindingdb.org/jsp/dbsearch/PrimarySearch_ki.jsp?energyterm=kJ/mole&tag=r21&monomerid=50221454&enzyme=Dipeptidyl+Peptidase+IV+%28DPP-IV%29&column=ki&startPg=0&Increment=50&submit=Search

>  <Mean(PubChem CID)>
44444373

>  <Mean(PubChem SID)>
104094111

>  <First(ZINC ID of Ligand)>
ZINC36311000

>  <Concatenate*(UniProt (SwissProt) Entry Name of Target Chain)>
DPP4_HUMAN

>  <Mean(Number of Protein Chains in Target (>1 implies a multichain complex))>
1

>  <Median(pIC50)>
8.39794000867204

>  <Journal>
Kow BioorgMedChemLett2007

>  <Activity Classes>
8.39794000867204

>  <Conformer_cresset>
1

>  <Similarity_cresset>
0.856

>  <Favorite_cresset>
false

>  <Activity (Median(pIC50))_cresset>
8.4

>  <LE (Median(pIC50))_cresset>
0.302

>  <LipE (Median(pIC50))_cresset>
2.8

>  <Tags_cresset>
test

>  <Confs_cresset>
8

>  <Conf#_cresset>
1

>  <Alns_cresset>
8

>  <MW_cresset>
566.4

>  <#Atoms_cresset>
39

>  <SlogP_cresset>
5.6

>  <TPSA_cresset>
78.7

>  <Flexibility_cresset>
6.9

>  <#RB_cresset>
9

>  <Rof5_cresset>
2

>  <Filename_cresset>
bindingdb_similar_1x70_processed.sdf

>  <Notes_cresset>
31b

>  <Selected Alignment_cresset>
true

>  <Alignment Cluster Centre_cresset>
true

>  <_cresset_fieldpoints>
-5      40.888859      48.583073      37.675304     -9.1297
-5      46.532936      49.143143      38.140903     -3.0399
-5      47.361115      52.625683      33.393562     -1.7776
-5      50.836819      48.570572      34.371464     -1.4453
-5      32.808922      45.938324      35.660271     -2.7908
-5      51.969555      50.006878      36.505768     -1.3854
-5      50.728893      49.565025      38.790840     -1.4528
-5      42.101757      52.379910      42.426769     -2.1075
-6      35.671066      50.580769      33.240116      5.4428
-6      41.120201      54.574093      36.847786     10.8499
-6      43.078434      47.701214      41.820572      3.1679
-6      44.658791      48.473270      39.116928      3.6065
-6      40.531994      54.241093      33.636642     11.0769
-6      41.901348      53.471333      32.702309     11.1731
-7      35.361984      50.393505      33.207355     -2.5509
-7      36.213120      48.855637      39.371899     -3.1114
-7      38.868443      48.318066      38.671124     -3.4634
-7      37.063938      49.408211      32.873074     -2.4280
-7      39.927368      54.407795      33.541695     -1.8818
-7      40.142803      50.329586      32.084084     -1.5192
-7      40.923435      54.735477      37.186260     -2.3797
-7      43.307480      56.065571      35.026108     -1.1456
-7      42.684563      54.882053      38.480442     -2.0302
-7      45.782726      54.145027      37.295944     -2.5376
-7      39.197617      54.213058      37.567123     -2.7181
-7      39.033634      54.229130      41.749660     -1.7221
-7      46.240948      49.000008      38.593906     -2.4164
-7      52.135033      50.203625      36.417065     -1.1032
-7      46.616032      52.452457      39.092880     -2.2518
-7      46.294689      50.791901      32.924549     -2.0068
-7      41.879013      53.347099      32.261688     -1.6131
-7      43.051712      49.660221      33.967545     -2.6817
-7      40.995163      48.727139      43.938053     -1.6207
-7      40.314106      48.324177      37.940620     -3.4831
-7      35.872501      50.148529      43.673603     -1.1361
-7      42.141209      52.716053      42.471039     -2.2250
-8      35.711357      49.787674      36.350338      7.2706
-8      38.961742      50.598137      41.457836      6.2515
-8      41.153309      50.946495      39.967438      7.2448
-8      39.501122      51.333527      35.934139      4.9923
-8      43.443050      53.321625      34.745934      3.7414
-8      48.708935      50.892311      36.128365      5.5986

$$$$
