bindingdb_similar_1x70_processed:42
 OpenBabel04261912203D

 48 50  0  0  1  0  0  0  0  0999 V2000
   42.6634   51.6024   36.1705 N   0  0  0  0  0  0  0  0  0  0  0  0
   41.4820   50.9689   35.9969 C   0  0  0  0  0  0  0  0  0  0  0  0
   41.2351   49.8560   36.4427 O   0  0  0  0  0  0  0  0  0  0  0  0
   35.5330   48.4710   36.0185 C   0  0  0  0  0  0  0  0  0  0  0  0
   34.4475   49.2782   36.3047 C   0  0  0  0  0  0  0  0  0  0  0  0
   34.6292   50.5915   36.6687 C   0  0  0  0  0  0  0  0  0  0  0  0
   35.8986   51.1176   36.7319 C   0  0  0  0  0  0  0  0  0  0  0  0
   36.9925   50.3274   36.4361 C   0  0  0  0  0  0  0  0  0  0  0  0
   36.8016   49.0076   36.0866 C   0  0  0  0  0  0  0  0  0  0  0  0
   36.0473   52.4051   37.0713 F   0  0  0  0  0  0  0  0  0  0  0  0
   38.4039   50.9003   36.4662 C   0  0  0  0  0  0  0  0  0  0  0  0
   39.0706   51.0717   35.0799 C   0  0  2  0  0  0  0  0  0  0  0  0
   40.4527   51.7494   35.2024 C   0  0  0  0  0  0  0  0  0  0  0  0
   38.2131   51.9238   34.1830 N   0  3  0  0  0  0  0  0  0  0  0  0
   35.3819   47.1833   35.6642 F   0  0  0  0  0  0  0  0  0  0  0  0
   32.7736   48.6415   36.1922 S   0  0  0  0  0  0  0  0  0  0  0  0
   31.8449   49.8654   35.2256 C   0  0  0  0  0  0  0  0  0  0  0  0
   43.6816   50.9836   37.0454 C   0  0  0  0  0  0  0  0  0  0  0  0
   43.0256   52.8950   35.5334 C   0  0  0  0  0  0  0  0  0  0  0  0
   44.2439   52.6950   34.6042 C   0  0  0  0  0  0  0  0  0  0  0  0
   45.2830   51.9490   35.3290 N   0  0  0  0  0  0  0  0  0  0  0  0
   45.0475   51.1746   36.4204 C   0  0  0  0  0  0  0  0  0  0  0  0
   46.1789   50.6674   36.7971 N   0  0  0  0  0  0  0  0  0  0  0  0
   46.6154   51.8786   35.0445 C   0  0  0  0  0  0  0  0  0  0  0  0
   47.1529   51.1054   35.9397 N   0  0  0  0  0  0  0  0  0  0  0  0
   47.3449   52.5557   33.8966 C   0  0  0  0  0  0  0  0  0  0  0  0
   46.8892   52.0874   32.6689 F   0  0  0  0  0  0  0  0  0  0  0  0
   47.1684   53.9352   33.9105 F   0  0  0  0  0  0  0  0  0  0  0  0
   48.7135   52.3151   33.9490 F   0  0  0  0  0  0  0  0  0  0  0  0
   33.8404   51.1675   36.8802 H   0  0  0  0  0  0  0  0  0  0  0  0
   37.5920   48.4354   35.8673 H   0  0  0  0  0  0  0  0  0  0  0  0
   38.4068   51.9695   37.0116 H   0  0  0  0  0  0  0  0  0  0  0  0
   39.0721   50.1571   37.1279 H   0  0  0  0  0  0  0  0  0  0  0  0
   39.2103   49.9920   34.5766 H   0  0  0  0  0  0  0  0  0  0  0  0
   40.2701   52.8170   35.7201 H   0  0  0  0  0  0  0  0  0  0  0  0
   40.8694   51.8863   34.0850 H   0  0  0  0  0  0  0  0  0  0  0  0
   37.3906   51.5546   34.0546 H   0  0  0  0  0  0  0  0  0  0  0  0
   38.5803   52.0376   33.3568 H   0  0  0  0  0  0  0  0  0  0  0  0
   38.0830   52.7528   34.5370 H   0  0  0  0  0  0  0  0  0  0  0  0
   30.6956   49.5328   35.1397 H   0  0  0  0  0  0  0  0  0  0  0  0
   32.3201   49.9570   34.1277 H   0  0  0  0  0  0  0  0  0  0  0  0
   31.9027   50.9345   35.7671 H   0  0  0  0  0  0  0  0  0  0  0  0
   43.4698   49.8088   37.1640 H   0  0  0  0  0  0  0  0  0  0  0  0
   43.6558   51.5080   38.1245 H   0  0  0  0  0  0  0  0  0  0  0  0
   42.1814   53.4515   34.8928 H   0  0  0  0  0  0  0  0  0  0  0  0
   43.3600   53.6411   36.4121 H   0  0  0  0  0  0  0  0  0  0  0  0
   43.9094   52.0640   33.6399 H   0  0  0  0  0  0  0  0  0  0  0  0
   44.6571   53.7666   34.2575 H   0  0  0  0  0  0  0  0  0  0  0  0
  1  2  1  0  0  0  0
  1 19  1  0  0  0  0
  2  3  2  0  0  0  0
  2 13  1  0  0  0  0
  4  5  2  0  0  0  0
  4  9  1  0  0  0  0
  4 15  1  0  0  0  0
  5  6  1  0  0  0  0
  5 16  1  0  0  0  0
  6  7  2  0  0  0  0
  6 30  1  0  0  0  0
  7  8  1  0  0  0  0
  7 10  1  0  0  0  0
  8  9  2  0  0  0  0
  8 11  1  0  0  0  0
  9 31  1  0  0  0  0
 11 32  1  0  0  0  0
 11 33  1  0  0  0  0
 12 11  1  0  0  0  0
 12 13  1  0  0  0  0
 12 14  1  0  0  0  0
 12 34  1  6  0  0  0
 13 35  1  0  0  0  0
 13 36  1  0  0  0  0
 14 37  1  0  0  0  0
 14 38  1  0  0  0  0
 14 39  1  0  0  0  0
 16 17  1  0  0  0  0
 17 40  1  0  0  0  0
 17 41  1  0  0  0  0
 17 42  1  0  0  0  0
 18  1  1  0  0  0  0
 18 22  1  0  0  0  0
 18 43  1  0  0  0  0
 18 44  1  0  0  0  0
 19 20  1  0  0  0  0
 19 45  1  0  0  0  0
 19 46  1  0  0  0  0
 20 21  1  0  0  0  0
 20 47  1  0  0  0  0
 20 48  1  0  0  0  0
 21 24  1  0  0  0  0
 22 21  1  0  0  0  0
 23 22  2  0  0  0  0
 23 25  1  0  0  0  0
 24 25  2  0  0  0  0
 24 26  1  0  0  0  0
 26 27  1  0  0  0  0
 26 28  1  0  0  0  0
 26 29  1  0  0  0  0
M  CHG  1  14   1
M  END
>  <Mean(IC50 fixed2)>
780

>  <First(BindingDB Ligand Name)>
DPP-4 ligand 12

>  <Concatenate(Target Name Assigned by Curator or DataSource)>
Dipeptidyl Peptidase IV (DPP-IV)

>  <First(Target Source Organism According to Curator or DataSource)>
Homo sapiens (human)

>  <First(Curation/DataSource)>
Curated from the literature by BindingDB

>  <First(Article DOI)>
10.1016/j.bmcl.2007.02.040

>  <Mean(PMID)>
17337342

>  <First(Authors)>
Adam, GC; Meng, J; Athanasopoulos, J; Zhang, X; Chapman, KT

>  <First(Institution)>
Merck Research Laboratories

>  <First(Link to Ligand in BindingDB)>
http://www.bindingdb.org/bind/chemsearch/marvin/MolStructure.jsp?monomerid=15570

>  <First(Link to Ligand-Target Pair in BindingDB)>
http://www.bindingdb.org/jsp/dbsearch/PrimarySearch_ki.jsp?energyterm=kJ/mole&tag=r21&monomerid=15570&enzyme=Dipeptidyl+Peptidase+IV+%28DPP-IV%29&column=ki&startPg=0&Increment=50&submit=Search

>  <Mean(PubChem CID)>
23647141

>  <Mean(PubChem SID)>
46515864

>  <First(ZINC ID of Ligand)>
ZINC14958979

>  <Concatenate*(UniProt (SwissProt) Entry Name of Target Chain)>
DPP4_HUMAN

>  <Mean(Number of Protein Chains in Target (>1 implies a multichain complex))>
1

>  <Median(pIC50)>
6.10790539730952

>  <Activity Classes>
6.10790539730952

>  <Conformer_cresset>
1

>  <Similarity_cresset>
0.835

>  <Favorite_cresset>
false

>  <Activity (Median(pIC50))_cresset>
6.11

>  <LE (Median(pIC50))_cresset>
0.295

>  <LipE (Median(pIC50))_cresset>
3

>  <Tags_cresset>
training

>  <Confs_cresset>
5

>  <Conf#_cresset>
1

>  <Alns_cresset>
5

>  <MW_cresset>
436.4

>  <#Atoms_cresset>
29

>  <SlogP_cresset>
3.1

>  <TPSA_cresset>
78.7

>  <Flexibility_cresset>
5.9

>  <#RB_cresset>
7

>  <Rof5_cresset>
0

>  <Filename_cresset>
bindingdb_similar_1x70_processed.sdf

>  <Selected Alignment_cresset>
true

>  <Alignment Cluster Centre_cresset>
true

>  <_cresset_fieldpoints>
-5      47.843121      49.904934      37.193760    -12.3262
-5      40.622517      48.186707      36.757599     -7.4083
-5      33.144615      45.321075      36.134022     -2.2894
-5      37.469902      45.156239      36.189541     -1.2050
-6      35.397942      51.026833      33.336918      5.2762
-6      33.215672      52.731804      34.870148      4.9041
-6      42.037148      53.428024      32.697800     11.6490
-7      40.875881      52.514111      38.361481     -2.6353
-7      43.108822      49.623627      34.015854     -2.7028
-7      40.019131      47.925671      35.971981     -2.5516
-7      38.474091      54.470257      36.356045     -2.0561
-7      39.948830      54.372623      33.517185     -1.8753
-7      40.148216      50.311035      32.092045     -1.5158
-7      41.928333      53.332623      32.279297     -1.6919
-7      36.862152      49.437275      32.905884     -2.4735
-7      35.821365      48.901630      39.433052     -2.2535
-7      31.913248      51.437496      38.409584     -1.8101
-7      35.082561      50.599796      33.330521     -3.0252
-7      47.296158      48.727394      35.545532     -1.4938
-7      44.521046      54.104244      31.667574     -1.5820
-7      45.789120      54.494133      36.925655     -2.3051
-7      49.060093      54.141529      31.142992     -1.1106
-7      47.958801      52.016701      38.022476     -1.4872
-8      35.721493      49.801464      36.369572      7.2521
-8      43.462982      53.282955      34.737003      3.7904
-8      39.507641      51.310566      35.929359      4.9403
-8      47.365868      52.601196      33.826099      5.6564
-8      33.523563      49.637699      36.171715      5.6996
-8      34.096401      49.211639      36.242657      5.7024
-8      44.188560      50.831383      37.378666      2.7926
-8      37.013050      51.166862      36.647415      5.6188

$$$$
