@<TRIPOS>MOLECULE
bindingdb_similar_1x70_processed:26
 44 46 0 0 0
SMALL
GASTEIGER

@<TRIPOS>ATOM
      1 C          34.4598   49.2448   36.3298 C.ar    1  LIG1        0.1611
      2 C          34.6118   50.5698   36.6688 C.ar    1  LIG1        0.0119
      3 C          35.8687   51.1330   36.7188 C.ar    1  LIG1        0.1296
      4 C          36.9840   50.3706   36.4301 C.ar    1  LIG1       -0.0040
      5 C          36.8273   49.0422   36.0986 C.ar    1  LIG1       -0.0175
      6 C          35.5723   48.4778   36.0448 C.ar    1  LIG1        0.1588
      7 C          38.3850   50.9681   36.4576 C.3     1  LIG1        0.0187
      8 C          39.0607   51.1016   35.0731 C.3     1  LIG1       -0.0118
      9 C          40.4456   51.7722   35.1915 C.3     1  LIG1        0.0673
     10 N          38.2128   51.9293   34.1468 N.4     1  LIG1        0.2213
     11 C          41.4655   50.9576   35.9644 C.2     1  LIG1        0.2214
     12 N          42.6633   51.5598   36.1405 N.am    1  LIG1       -0.2922
     13 O          41.1942   49.8429   36.3908 O.2     1  LIG1       -0.2754
     14 C          43.0323   52.8766   35.5534 C.3     1  LIG1        0.0348
     15 C          44.2716   52.7470   34.6393 C.3     1  LIG1        0.0593
     16 C          43.6748   50.8844   36.9841 C.3     1  LIG1        0.0742
     17 C          45.0562   51.1454   36.4206 C.ar    1  LIG1        0.1455
     18 N          45.2762   51.9847   35.3877 N.ar    1  LIG1       -0.2456
     19 N          46.6093   51.9966   35.1432 N.ar    1  LIG1       -0.1453
     20 C          47.1378   51.1868   36.0186 C.ar    1  LIG1        0.2548
     21 N          46.2051   50.6418   36.8288 N.ar    1  LIG1       -0.2064
     22 F          35.9911   52.4273   37.0479 F       1  LIG1       -0.2051
     23 F          33.2325   48.7072   36.2768 F       1  LIG1       -0.2024
     24 F          35.4364   47.1861   35.7118 F       1  LIG1       -0.2025
     25 C          48.6230   50.9027   36.1241 C.3     1  LIG1        0.4540
     26 F          48.8668   49.6380   36.6487 F       1  LIG1       -0.1631
     27 F          49.2470   50.9661   34.8829 F       1  LIG1       -0.1631
     28 F          49.2471   51.8269   36.9541 F       1  LIG1       -0.1631
     29 H          39.1941   50.0077   34.5982 H       1  LIG1        0.0858
     30 H          33.8076   51.1264   36.8774 H       1  LIG1        0.0676
     31 H          37.6311   48.4851   35.8898 H       1  LIG1        0.0651
     32 H          38.3655   52.0498   36.9770 H       1  LIG1        0.0369
     33 H          39.0585   50.2524   37.1452 H       1  LIG1        0.0369
     34 H          40.2772   52.8318   35.7289 H       1  LIG1        0.0414
     35 H          40.8560   51.9224   34.0736 H       1  LIG1        0.0414
     36 H          37.3826   51.5736   34.0368 H       1  LIG1        0.1997
     37 H          38.5764   51.9964   33.3154 H       1  LIG1        0.1997
     38 H          38.0974   52.7772   34.4568 H       1  LIG1        0.1997
     39 H          42.1937   53.4519   34.9217 H       1  LIG1        0.0483
     40 H          43.3410   53.5892   36.4682 H       1  LIG1        0.0483
     41 H          43.9766   52.1477   33.6422 H       1  LIG1        0.0525
     42 H          44.6939   53.8333   34.3539 H       1  LIG1        0.0525
     43 H          43.4786   49.7008   36.9988 H       1  LIG1        0.0545
     44 H          43.6116   51.3122   38.1035 H       1  LIG1        0.0545
@<TRIPOS>BOND
     1     1     2   ar
     2     1    23    1
     3     2     3   ar
     4     2    30    1
     5     3     4   ar
     6     3    22    1
     7     4     5   ar
     8     4     7    1
     9     5     6   ar
    10     5    31    1
    11     6     1   ar
    12     6    24    1
    13     7    32    1
    14     7    33    1
    15     8     7    1
    16     8     9    1
    17     8    10    1
    18     8    29    1
    19     9    11    1
    20     9    34    1
    21     9    35    1
    22    10    36    1
    23    10    37    1
    24    10    38    1
    25    11    12   am
    26    11    13    2
    27    12    14    1
    28    12    16    1
    29    14    15    1
    30    14    39    1
    31    14    40    1
    32    15    18    1
    33    15    41    1
    34    15    42    1
    35    16    43    1
    36    16    44    1
    37    17    16    1
    38    17    18   ar
    39    18    19   ar
    40    19    20   ar
    41    20    21   ar
    42    20    25    1
    43    21    17   ar
    44    25    26    1
    45    25    27    1
    46    25    28    1
