bindingdb_similar_1x70_processed:16
 OpenBabel04261912203D

 44 46  0  0  1  0  0  0  0  0999 V2000
   34.4427   49.2650   36.3075 C   0  0  0  0  0  0  0  0  0  0  0  0
   35.5365   48.4688   36.0496 C   0  0  0  0  0  0  0  0  0  0  0  0
   36.8078   48.9961   36.1220 C   0  0  0  0  0  0  0  0  0  0  0  0
   36.9948   50.3261   36.4446 C   0  0  0  0  0  0  0  0  0  0  0  0
   35.8942   51.1154   36.7178 C   0  0  0  0  0  0  0  0  0  0  0  0
   34.6237   50.5876   36.6459 C   0  0  0  0  0  0  0  0  0  0  0  0
   38.4023   50.9118   36.4748 C   0  0  0  0  0  0  0  0  0  0  0  0
   39.0670   51.0833   35.0870 C   0  0  2  0  0  0  0  0  0  0  0  0
   40.4511   51.7561   35.2057 C   0  0  0  0  0  0  0  0  0  0  0  0
   41.4821   50.9683   35.9932 C   0  0  0  0  0  0  0  0  0  0  0  0
   42.6644   51.5996   36.1687 N   0  0  0  0  0  0  0  0  0  0  0  0
   41.2352   49.8527   36.4327 O   0  0  0  0  0  0  0  0  0  0  0  0
   38.2117   51.9348   34.1870 N   0  3  0  0  0  0  0  0  0  0  0  0
   43.0279   52.8950   35.5382 C   0  0  0  0  0  0  0  0  0  0  0  0
   44.2453   52.6985   34.6073 C   0  0  0  0  0  0  0  0  0  0  0  0
   43.6826   50.9763   37.0398 C   0  0  0  0  0  0  0  0  0  0  0  0
   45.0485   51.1685   36.4153 C   0  0  0  0  0  0  0  0  0  0  0  0
   45.2845   51.9479   35.3277 N   0  0  0  0  0  0  0  0  0  0  0  0
   46.6167   51.8773   35.0424 C   0  0  0  0  0  0  0  0  0  0  0  0
   47.1538   51.0995   35.9340 N   0  0  0  0  0  0  0  0  0  0  0  0
   46.1795   50.6584   36.7894 N   0  0  0  0  0  0  0  0  0  0  0  0
   47.3469   52.5590   33.8978 C   0  0  0  0  0  0  0  0  0  0  0  0
   47.1718   53.9386   33.9182 F   0  0  0  0  0  0  0  0  0  0  0  0
   48.7151   52.3166   33.9491 F   0  0  0  0  0  0  0  0  0  0  0  0
   46.8904   52.0969   32.6679 F   0  0  0  0  0  0  0  0  0  0  0  0
   36.0433   52.4065   37.0492 F   0  0  0  0  0  0  0  0  0  0  0  0
   33.2064   48.7530   36.2307 F   0  0  0  0  0  0  0  0  0  0  0  0
   37.8621   48.2060   35.8720 F   0  0  0  0  0  0  0  0  0  0  0  0
   35.4082   47.5074   35.8064 H   0  0  0  0  0  0  0  0  0  0  0  0
   33.8313   51.1675   36.8347 H   0  0  0  0  0  0  0  0  0  0  0  0
   38.4041   51.9808   37.0206 H   0  0  0  0  0  0  0  0  0  0  0  0
   39.0739   50.1693   37.1352 H   0  0  0  0  0  0  0  0  0  0  0  0
   39.2107   50.0068   34.5775 H   0  0  0  0  0  0  0  0  0  0  0  0
   40.2727   52.8217   35.7286 H   0  0  0  0  0  0  0  0  0  0  0  0
   40.8652   51.8933   34.0871 H   0  0  0  0  0  0  0  0  0  0  0  0
   37.3874   51.5705   34.0598 H   0  0  0  0  0  0  0  0  0  0  0  0
   38.5782   52.0420   33.3602 H   0  0  0  0  0  0  0  0  0  0  0  0
   38.0861   52.7666   34.5344 H   0  0  0  0  0  0  0  0  0  0  0  0
   42.1834   53.4562   34.9017 H   0  0  0  0  0  0  0  0  0  0  0  0
   43.3640   53.6352   36.4211 H   0  0  0  0  0  0  0  0  0  0  0  0
   43.9091   52.0720   33.6407 H   0  0  0  0  0  0  0  0  0  0  0  0
   44.6593   53.7710   34.2645 H   0  0  0  0  0  0  0  0  0  0  0  0
   43.4697   49.8011   37.1546 H   0  0  0  0  0  0  0  0  0  0  0  0
   43.6584   51.4974   38.1211 H   0  0  0  0  0  0  0  0  0  0  0  0
  1  2  2  0  0  0  0
  1 27  1  0  0  0  0
  2  3  1  0  0  0  0
  2 29  1  0  0  0  0
  3  4  2  0  0  0  0
  3 28  1  0  0  0  0
  4  5  1  0  0  0  0
  4  7  1  0  0  0  0
  5  6  2  0  0  0  0
  5 26  1  0  0  0  0
  6  1  1  0  0  0  0
  6 30  1  0  0  0  0
  7 31  1  0  0  0  0
  7 32  1  0  0  0  0
  8  7  1  0  0  0  0
  8  9  1  0  0  0  0
  8 13  1  0  0  0  0
  8 33  1  6  0  0  0
  9 10  1  0  0  0  0
  9 34  1  0  0  0  0
  9 35  1  0  0  0  0
 10 11  1  0  0  0  0
 10 12  2  0  0  0  0
 11 14  1  0  0  0  0
 11 16  1  0  0  0  0
 13 36  1  0  0  0  0
 13 37  1  0  0  0  0
 13 38  1  0  0  0  0
 14 15  1  0  0  0  0
 14 39  1  0  0  0  0
 14 40  1  0  0  0  0
 15 18  1  0  0  0  0
 15 41  1  0  0  0  0
 15 42  1  0  0  0  0
 16 43  1  0  0  0  0
 16 44  1  0  0  0  0
 17 16  1  0  0  0  0
 17 18  1  0  0  0  0
 18 19  1  0  0  0  0
 19 20  2  0  0  0  0
 19 22  1  0  0  0  0
 20 21  1  0  0  0  0
 21 17  2  0  0  0  0
 22 23  1  0  0  0  0
 22 24  1  0  0  0  0
 22 25  1  0  0  0  0
M  CHG  1  13   1
M  END
>  <Mean(IC50 fixed2)>
87

>  <First(BindingDB Ligand Name)>
CHEMBL394834

>  <Concatenate(Target Name Assigned by Curator or DataSource)>
Dipeptidyl Peptidase IV (DPP-IV), Dipeptidyl Peptidase IV (DPP-IV)

>  <First(Target Source Organism According to Curator or DataSource)>
Homo sapiens

>  <First(Curation/DataSource)>
ChEMBL

>  <First(Article DOI)>
10.1016/j.bmcl.2007.03.098

>  <Mean(PMID)>
18002548.5

>  <First(Authors)>
Kim, D; Kowalchick, JE; Edmondson, SD; Mastracchio, A; Xu, J; Eiermann, GJ; Leiting, B; Wu, JK; Pryor, KD; Patel, RA; He, H; Lyons, KA; Thornberry, NA; Weber, AE

>  <First(Institution)>
Merck Research Laboratories<span class=m1fontSize>Curated by</span> <a href=http://www.ebi.ac.uk/chembl/>ChEMBL</a>

>  <First(Link to Ligand in BindingDB)>
http://www.bindingdb.org/bind/chemsearch/marvin/MolStructure.jsp?monomerid=50210658

>  <First(Link to Ligand-Target Pair in BindingDB)>
http://www.bindingdb.org/jsp/dbsearch/PrimarySearch_ki.jsp?energyterm=kJ/mole&tag=r21&monomerid=50210658&enzyme=Dipeptidyl+Peptidase+IV+%28DPP-IV%29&column=ki&startPg=0&Increment=50&submit=Search

>  <Mean(PubChem CID)>
44431177

>  <Mean(PubChem SID)>
104087145

>  <First(ZINC ID of Ligand)>
ZINC28820747

>  <Concatenate*(UniProt (SwissProt) Entry Name of Target Chain)>
DPP4_HUMAN, DPP4_HUMAN

>  <Mean(Number of Protein Chains in Target (>1 implies a multichain complex))>
1

>  <Median(pIC50)>
7.06048074738138

>  <Journal>
BiorgMedChemLett2007

>  <Activity Classes>
7.06048074738138

>  <Conformer_cresset>
1

>  <Similarity_cresset>
0.851

>  <Favorite_cresset>
false

>  <Activity (Median(pIC50))_cresset>
7.06

>  <LE (Median(pIC50))_cresset>
0.353

>  <LipE (Median(pIC50))_cresset>
4.2

>  <Tags_cresset>
test

>  <Confs_cresset>
2

>  <Conf#_cresset>
1

>  <Alns_cresset>
2

>  <MW_cresset>
408.3

>  <#Atoms_cresset>
28

>  <SlogP_cresset>
2.8

>  <TPSA_cresset>
78.7

>  <Flexibility_cresset>
4.9

>  <#RB_cresset>
6

>  <Rof5_cresset>
0

>  <Filename_cresset>
bindingdb_similar_1x70_processed.sdf

>  <Notes_cresset>
28

>  <Selected Alignment_cresset>
true

>  <Alignment Cluster Centre_cresset>
true

>  <_cresset_fieldpoints>
-5      47.839306      49.885067      37.180134    -12.4564
-5      40.615311      48.185040      36.637497     -9.3119
-6      35.727711      50.512844      33.256088      5.6321
-6      42.036491      53.457218      32.707558     11.4454
-7      40.875355      52.484291      38.372021     -2.6485
-7      35.474907      50.290276      33.197014     -2.5282
-7      41.925625      53.346516      32.287441     -1.6929
-7      38.471779      54.478916      36.357773     -2.0577
-7      39.952480      54.380383      33.520008     -1.8750
-7      40.123749      50.268639      32.116879     -1.5578
-7      41.058239      48.246689      34.751232     -2.1670
-7      40.497417      48.285114      37.929653     -1.9659
-7      44.529221      54.129562      31.678770     -1.5816
-7      45.791256      54.486286      36.935047     -2.3051
-7      47.289909      48.722153      35.528374     -1.4939
-7      43.099251      49.632244      34.003395     -2.7112
-7      49.063023      54.158451      31.156628     -1.1106
-7      47.962452      51.996445      38.019699     -1.4875
-7      36.139347      49.084641      39.481499     -2.1584
-7      37.020531      49.455570      32.872471     -2.4923
-8      35.722107      49.797459      36.378574      7.2629
-8      37.752949      49.779659      36.146893      5.7744
-8      39.502338      51.312813      35.937157      4.9517
-8      43.464783      53.284866      34.737606      3.7901
-8      37.015896      51.166237      36.639751      5.6334
-8      47.365089      52.603535      33.829620      5.6565
-8      44.190746      50.815956      37.367184      2.7926
-8      43.703770      52.048210      36.166916      2.6681

$$$$
