bindingdb_similar_1x70_processed:60
 OpenBabel04261912203D

 54 57  0  0  1  0  0  0  0  0999 V2000
   34.3866   49.1796   36.3696 C   0  0  0  0  0  0  0  0  0  0  0  0
   34.5388   50.4881   36.7678 C   0  0  0  0  0  0  0  0  0  0  0  0
   35.7924   51.0595   36.8090 C   0  0  0  0  0  0  0  0  0  0  0  0
   36.9040   50.3211   36.4517 C   0  0  0  0  0  0  0  0  0  0  0  0
   36.7476   49.0087   36.0617 C   0  0  0  0  0  0  0  0  0  0  0  0
   35.4959   48.4364   36.0166 C   0  0  0  0  0  0  0  0  0  0  0  0
   38.3005   50.9295   36.4654 C   0  0  0  0  0  0  0  0  0  0  0  0
   38.9297   51.1394   35.0684 C   0  0  2  0  0  0  0  0  0  0  0  0
   40.3053   51.8313   35.1736 C   0  0  0  0  0  0  0  0  0  0  0  0
   38.0369   51.9916   34.2087 N   0  3  0  0  0  0  0  0  0  0  0  0
   41.3638   51.0063   35.8818 C   0  0  0  0  0  0  0  0  0  0  0  0
   42.5526   51.6271   36.0557 N   0  0  0  0  0  0  0  0  0  0  0  0
   41.1273   49.8681   36.2645 O   0  0  0  0  0  0  0  0  0  0  0  0
   42.8825   52.9630   35.4874 C   0  0  0  0  0  0  0  0  0  0  0  0
   44.0828   52.8531   34.5224 C   0  0  0  0  0  0  0  0  0  0  0  0
   43.5881   50.9406   36.8666 C   0  0  1  0  0  0  0  0  0  0  0  0
   44.9411   51.2122   36.2362 C   0  0  0  0  0  0  0  0  0  0  0  0
   45.1152   52.0712   35.2095 N   0  0  0  0  0  0  0  0  0  0  0  0
   46.4340   52.0830   34.9006 N   0  0  0  0  0  0  0  0  0  0  0  0
   47.0009   51.2543   35.7324 C   0  0  0  0  0  0  0  0  0  0  0  0
   46.1069   50.6952   36.5755 N   0  0  0  0  0  0  0  0  0  0  0  0
   35.9153   52.3377   37.1966 F   0  0  0  0  0  0  0  0  0  0  0  0
   33.1623   48.6346   36.3250 F   0  0  0  0  0  0  0  0  0  0  0  0
   35.3601   47.1610   35.6261 F   0  0  0  0  0  0  0  0  0  0  0  0
   48.4874   50.9645   35.7609 C   0  0  0  0  0  0  0  0  0  0  0  0
   49.1235   51.7348   36.7275 F   0  0  0  0  0  0  0  0  0  0  0  0
   48.7352   49.6293   36.0577 F   0  0  0  0  0  0  0  0  0  0  0  0
   49.0920   51.2420   34.5394 F   0  0  0  0  0  0  0  0  0  0  0  0
   43.5399   51.3349   38.3585 C   0  0  1  0  0  0  0  0  0  0  0  0
   42.1839   50.9555   38.9849 C   0  0  0  0  0  0  0  0  0  0  0  0
   41.1188   52.0636   38.9603 C   0  0  0  0  0  0  0  0  0  0  0  0
   41.8597   51.7384   40.2671 C   0  0  0  0  0  0  0  0  0  0  0  0
   44.5427   50.6576   39.0446 F   0  0  0  0  0  0  0  0  0  0  0  0
   39.0693   50.0709   34.5403 H   0  0  0  0  0  0  0  0  0  0  0  0
   43.4021   49.7570   36.8009 H   0  0  0  0  0  0  0  0  0  0  0  0
   43.7438   52.5125   38.4622 H   0  0  0  0  0  0  0  0  0  0  0  0
   33.7370   51.0270   37.0258 H   0  0  0  0  0  0  0  0  0  0  0  0
   37.5491   48.4692   35.8037 H   0  0  0  0  0  0  0  0  0  0  0  0
   39.0025   50.1871   37.0936 H   0  0  0  0  0  0  0  0  0  0  0  0
   38.2892   51.9834   37.0392 H   0  0  0  0  0  0  0  0  0  0  0  0
   40.1353   52.8666   35.7564 H   0  0  0  0  0  0  0  0  0  0  0  0
   40.6758   52.0319   34.0498 H   0  0  0  0  0  0  0  0  0  0  0  0
   37.2120   51.6223   34.1040 H   0  0  0  0  0  0  0  0  0  0  0  0
   38.3724   52.1116   33.3712 H   0  0  0  0  0  0  0  0  0  0  0  0
   37.9124   52.8186   34.5673 H   0  0  0  0  0  0  0  0  0  0  0  0
   42.0150   53.5433   34.9011 H   0  0  0  0  0  0  0  0  0  0  0  0
   43.2212   53.6658   36.3987 H   0  0  0  0  0  0  0  0  0  0  0  0
   43.7476   52.2790   33.5232 H   0  0  0  0  0  0  0  0  0  0  0  0
   44.4971   53.9456   34.2490 H   0  0  0  0  0  0  0  0  0  0  0  0
   41.7875   49.8232   38.9631 H   0  0  0  0  0  0  0  0  0  0  0  0
   39.9805   51.6865   38.9139 H   0  0  0  0  0  0  0  0  0  0  0  0
   41.4265   53.0969   38.4335 H   0  0  0  0  0  0  0  0  0  0  0  0
   41.1972   51.1625   41.0852 H   0  0  0  0  0  0  0  0  0  0  0  0
   42.6523   52.5685   40.6174 H   0  0  0  0  0  0  0  0  0  0  0  0
  1  2  2  0  0  0  0
  1 23  1  0  0  0  0
  2  3  1  0  0  0  0
  2 37  1  0  0  0  0
  3  4  2  0  0  0  0
  3 22  1  0  0  0  0
  4  5  1  0  0  0  0
  4  7  1  0  0  0  0
  5  6  2  0  0  0  0
  5 38  1  0  0  0  0
  6  1  1  0  0  0  0
  6 24  1  0  0  0  0
  7 39  1  0  0  0  0
  7 40  1  0  0  0  0
  8  7  1  0  0  0  0
  8  9  1  0  0  0  0
  8 10  1  0  0  0  0
  8 34  1  6  0  0  0
  9 11  1  0  0  0  0
  9 41  1  0  0  0  0
  9 42  1  0  0  0  0
 10 43  1  0  0  0  0
 10 44  1  0  0  0  0
 10 45  1  0  0  0  0
 11 12  1  0  0  0  0
 11 13  2  0  0  0  0
 12 14  1  0  0  0  0
 12 16  1  0  0  0  0
 14 15  1  0  0  0  0
 14 46  1  0  0  0  0
 14 47  1  0  0  0  0
 15 18  1  0  0  0  0
 15 48  1  0  0  0  0
 15 49  1  0  0  0  0
 16 29  1  0  0  0  0
 16 35  1  6  0  0  0
 17 16  1  0  0  0  0
 17 18  1  0  0  0  0
 18 19  1  0  0  0  0
 19 20  2  0  0  0  0
 20 21  1  0  0  0  0
 20 25  1  0  0  0  0
 21 17  2  0  0  0  0
 25 26  1  0  0  0  0
 25 27  1  0  0  0  0
 25 28  1  0  0  0  0
 29 30  1  0  0  0  0
 29 33  1  0  0  0  0
 29 36  1  1  0  0  0
 30 32  1  0  0  0  0
 30 50  1  0  0  0  0
 31 30  1  0  0  0  0
 31 51  1  0  0  0  0
 31 52  1  0  0  0  0
 32 31  1  0  0  0  0
 32 53  1  0  0  0  0
 32 54  1  0  0  0  0
M  CHG  1  10   1
M  END
>  <Mean(IC50 fixed2)>
14.5

>  <First(BindingDB Ligand Name)>
CHEMBL249945

>  <Concatenate(Target Name Assigned by Curator or DataSource)>
Dipeptidyl Peptidase IV (DPP-IV), Dipeptidyl Peptidase IV (DPP-IV)

>  <First(Target Source Organism According to Curator or DataSource)>
Homo sapiens

>  <First(Curation/DataSource)>
ChEMBL

>  <First(Article DOI)>
10.1016/j.bmcl.2007.07.100

>  <Mean(PMID)>
17827003

>  <First(Authors)>
Kowalchick, JE; Leiting, B; Pryor, KD; Marsilio, F; Wu, JK; He, H; Lyons, KA; Eiermann, GJ; Petrov, A; Scapin, G; Patel, RA; Thornberry, NA; Weber, AE; Kim, D

>  <First(Institution)>
Merck Research Laboratories<span class=m1fontSize>Curated by</span> <a href=http://www.ebi.ac.uk/chembl/>ChEMBL</a>

>  <First(Link to Ligand in BindingDB)>
http://www.bindingdb.org/bind/chemsearch/marvin/MolStructure.jsp?monomerid=50221445

>  <First(Link to Ligand-Target Pair in BindingDB)>
http://www.bindingdb.org/jsp/dbsearch/PrimarySearch_ki.jsp?energyterm=kJ/mole&tag=r21&monomerid=50221445&enzyme=Dipeptidyl+Peptidase+IV+%28DPP-IV%29&column=ki&startPg=0&Increment=50&submit=Search

>  <Mean(PubChem CID)>
44444383

>  <Mean(PubChem SID)>
104094102

>  <First(ZINC ID of Ligand)>
ZINC13982524

>  <Concatenate*(UniProt (SwissProt) Entry Name of Target Chain)>
DPP4_HUMAN, DPP4_HUMAN

>  <Mean(Number of Protein Chains in Target (>1 implies a multichain complex))>
1

>  <Median(pIC50)>
7.85166740486923

>  <Journal>
Kow BioorgMedChemLett2007

>  <Activity Classes>
7.85166740486923

>  <Conformer_cresset>
2

>  <Similarity_cresset>
0.801

>  <Favorite_cresset>
false

>  <Activity (Median(pIC50))_cresset>
7.85

>  <LE (Median(pIC50))_cresset>
0.333

>  <LipE (Median(pIC50))_cresset>
3.7

>  <Tags_cresset>
training

>  <Confs_cresset>
5

>  <Conf#_cresset>
2

>  <Alns_cresset>
9

>  <MW_cresset>
480.4

>  <#Atoms_cresset>
33

>  <SlogP_cresset>
4.1

>  <TPSA_cresset>
78.7

>  <Flexibility_cresset>
6.9

>  <#RB_cresset>
8

>  <Rof5_cresset>
0

>  <Filename_cresset>
bindingdb_similar_1x70_processed.sdf

>  <Notes_cresset>
34c,34d

>  <Selected Alignment_cresset>
true

>  <Alignment Cluster Centre_cresset>
true

>  <_cresset_fieldpoints>
-5      41.180214      48.158222      36.877796     -6.3403
-5      47.172318      52.906109      33.257462     -2.1448
-5      32.805599      45.856129      35.627316     -2.4474
-5      46.491337      49.071003      37.781433     -6.1905
-5      50.635983      48.611160      33.969006     -1.9807
-6      35.474445      50.644230      33.353580      5.8077
-6      40.926334      54.944183      36.287457     10.6836
-6      41.653126      53.672939      32.756287     11.3398
-6      40.328716      54.361103      33.730385     11.2535
-7      36.123379      48.861713      39.448715     -2.1660
-7      40.292328      48.198341      37.588783     -2.5938
-7      36.936623      49.471878      32.877808     -2.4243
-7      39.043056      49.362732      39.425938     -2.5126
-7      39.934174      47.947044      36.003124     -2.6684
-7      39.987190      50.441097      32.060680     -1.5262
-7      39.715759      54.512230      33.624432     -1.8658
-7      40.755150      54.982265      36.923561     -2.0155
-7      39.071602      54.247684      37.561317     -2.3570
-7      41.634846      53.594402      32.309414     -1.6165
-7      43.197414      56.166809      35.192410     -1.1455
-7      43.190853      54.881618      38.742725     -2.0598
-7      38.380356      54.449291      36.567940     -2.2368
-7      45.918850      48.266068      37.246361     -2.1591
-7      35.170925      50.455833      33.305462     -2.5464
-7      47.595634      49.993683      39.040215     -1.7694
-7      44.918732      53.797855      40.270374     -1.5638
-7      52.029995      50.284088      35.867050     -1.1033
-7      42.920975      49.773163      33.814255     -2.6803
-7      46.014263      50.950077      32.689323     -2.0090
-7      45.666401      54.075462      37.381783     -2.6439
-7      43.108631      47.724159      38.254200     -1.7471
-7      37.990639      50.264988      39.621765     -2.5208
-7      42.874287      48.706894      41.236076     -1.4544
-7      41.544415      47.935997      37.337563     -2.1829
-8      35.641720      49.749847      36.410843      7.2661
-8      39.397362      51.367142      35.932449      4.9969
-8      42.380772      51.711933      39.103806      6.0769
-8      43.330479      50.987415      38.368698      5.5314
-8      43.274120      53.429714      34.721699      3.7391
-8      48.586933      50.942745      35.768803      5.5993

$$$$
