bindingdb_similar_1x70_processed:45
 OpenBabel04261912203D

 51 54  0  0  1  0  0  0  0  0999 V2000
   34.2135   49.2406   36.3269 C   0  0  0  0  0  0  0  0  0  0  0  0
   34.3917   50.5657   36.6464 C   0  0  0  0  0  0  0  0  0  0  0  0
   35.6614   51.0986   36.7086 C   0  0  0  0  0  0  0  0  0  0  0  0
   36.7618   50.3032   36.4517 C   0  0  0  0  0  0  0  0  0  0  0  0
   36.5774   48.9750   36.1372 C   0  0  0  0  0  0  0  0  0  0  0  0
   35.3073   48.4433   36.0715 C   0  0  0  0  0  0  0  0  0  0  0  0
   38.1736   50.8730   36.4979 C   0  0  0  0  0  0  0  0  0  0  0  0
   38.8710   51.0010   35.1233 C   0  0  1  0  0  0  0  0  0  0  0  0
   38.0372   51.8351   34.1890 N   0  3  0  0  0  0  0  0  0  0  0  0
   40.2565   51.6676   35.2595 C   0  0  0  0  0  0  0  0  0  0  0  0
   41.2627   50.8904   36.0865 C   0  0  0  0  0  0  0  0  0  0  0  0
   40.9946   49.7882   36.5471 O   0  0  0  0  0  0  0  0  0  0  0  0
   42.4479   51.5140   36.2749 N   0  0  0  0  0  0  0  0  0  0  0  0
   42.8240   52.8130   35.6594 C   0  0  0  0  0  0  0  0  0  0  0  0
   44.0808   52.6291   34.7828 C   0  0  0  0  0  0  0  0  0  0  0  0
   43.4484   50.8850   37.1624 C   0  0  0  0  0  0  0  0  0  0  0  0
   44.8313   51.0651   36.5717 C   0  0  0  0  0  0  0  0  0  0  0  0
   45.1168   51.9211   35.5544 N   0  0  0  0  0  0  0  0  0  0  0  0
   46.4662   51.8440   35.3162 C   0  0  0  0  0  0  0  0  0  0  0  0
   46.9453   50.9442   36.1355 N   0  0  0  0  0  0  0  0  0  0  0  0
   45.9315   50.4775   36.9251 N   0  0  0  0  0  0  0  0  0  0  0  0
   35.1362   47.1524   35.7555 F   0  0  0  0  0  0  0  0  0  0  0  0
   47.1973   52.6371   34.3517 C   0  0  0  0  0  0  0  0  0  0  0  0
   48.0741   52.0320   33.4665 C   0  0  0  0  0  0  0  0  0  0  0  0
   48.7940   52.7928   32.5767 C   0  0  0  0  0  0  0  0  0  0  0  0
   48.6581   54.1663   32.5706 C   0  0  0  0  0  0  0  0  0  0  0  0
   47.7863   54.7750   33.4479 C   0  0  0  0  0  0  0  0  0  0  0  0
   47.0590   54.0154   34.3288 C   0  0  0  0  0  0  0  0  0  0  0  0
   49.3770   54.9133   31.7221 F   0  0  0  0  0  0  0  0  0  0  0  0
   35.8130   52.3946   37.0186 F   0  0  0  0  0  0  0  0  0  0  0  0
   33.2916   48.8566   36.2794 H   0  0  0  0  0  0  0  0  0  0  0  0
   33.5986   51.1457   36.8325 H   0  0  0  0  0  0  0  0  0  0  0  0
   37.3697   48.3941   35.9504 H   0  0  0  0  0  0  0  0  0  0  0  0
   38.8275   50.1440   37.1903 H   0  0  0  0  0  0  0  0  0  0  0  0
   38.1709   51.9528   37.0218 H   0  0  0  0  0  0  0  0  0  0  0  0
   39.0049   49.9069   34.6488 H   0  0  0  0  0  0  0  0  0  0  0  0
   37.2113   51.4743   34.0610 H   0  0  0  0  0  0  0  0  0  0  0  0
   38.4162   51.9162   33.3653 H   0  0  0  0  0  0  0  0  0  0  0  0
   37.9131   52.6767   34.5134 H   0  0  0  0  0  0  0  0  0  0  0  0
   40.0727   52.7468   35.7517 H   0  0  0  0  0  0  0  0  0  0  0  0
   40.6947   51.7811   34.1482 H   0  0  0  0  0  0  0  0  0  0  0  0
   42.0029   53.3544   34.9765 H   0  0  0  0  0  0  0  0  0  0  0  0
   43.1084   53.5640   36.5515 H   0  0  0  0  0  0  0  0  0  0  0  0
   43.7877   51.9480   33.8381 H   0  0  0  0  0  0  0  0  0  0  0  0
   44.4505   53.6985   34.3904 H   0  0  0  0  0  0  0  0  0  0  0  0
   43.2271   49.7126   37.2813 H   0  0  0  0  0  0  0  0  0  0  0  0
   43.4018   51.4099   38.2411 H   0  0  0  0  0  0  0  0  0  0  0  0
   48.1834   51.0380   33.4738 H   0  0  0  0  0  0  0  0  0  0  0  0
   49.4235   52.3514   31.9369 H   0  0  0  0  0  0  0  0  0  0  0  0
   47.6875   55.7694   33.4464 H   0  0  0  0  0  0  0  0  0  0  0  0
   46.4361   54.4632   34.9701 H   0  0  0  0  0  0  0  0  0  0  0  0
  1  2  2  0  0  0  0
  1 31  1  0  0  0  0
  2  3  1  0  0  0  0
  2 32  1  0  0  0  0
  3  4  2  0  0  0  0
  3 30  1  0  0  0  0
  4  5  1  0  0  0  0
  4  7  1  0  0  0  0
  5  6  2  0  0  0  0
  5 33  1  0  0  0  0
  6  1  1  0  0  0  0
  6 22  1  0  0  0  0
  7 34  1  0  0  0  0
  7 35  1  0  0  0  0
  8  7  1  0  0  0  0
  8  9  1  0  0  0  0
  8 10  1  0  0  0  0
  8 36  1  6  0  0  0
  9 37  1  0  0  0  0
  9 38  1  0  0  0  0
  9 39  1  0  0  0  0
 10 11  1  0  0  0  0
 10 40  1  0  0  0  0
 10 41  1  0  0  0  0
 11 12  2  0  0  0  0
 11 13  1  0  0  0  0
 13 14  1  0  0  0  0
 13 16  1  0  0  0  0
 14 15  1  0  0  0  0
 14 42  1  0  0  0  0
 14 43  1  0  0  0  0
 15 18  1  0  0  0  0
 15 44  1  0  0  0  0
 15 45  1  0  0  0  0
 16 46  1  0  0  0  0
 16 47  1  0  0  0  0
 17 16  1  0  0  0  0
 17 18  1  0  0  0  0
 18 19  1  0  0  0  0
 19 20  2  0  0  0  0
 19 23  1  0  0  0  0
 20 21  1  0  0  0  0
 21 17  2  0  0  0  0
 23 24  2  0  0  0  0
 24 25  1  0  0  0  0
 24 48  1  0  0  0  0
 25 26  2  0  0  0  0
 25 49  1  0  0  0  0
 26 27  1  0  0  0  0
 26 29  1  0  0  0  0
 27 28  2  0  0  0  0
 27 50  1  0  0  0  0
 28 23  1  0  0  0  0
 28 51  1  0  0  0  0
M  CHG  1   9   1
M  END
>  <Mean(IC50 fixed2)>
60

>  <First(BindingDB Ligand Name)>
CHEMBL233472

>  <Concatenate(Target Name Assigned by Curator or DataSource)>
Dipeptidyl Peptidase IV (DPP-IV)

>  <First(Target Source Organism According to Curator or DataSource)>
Homo sapiens

>  <First(Curation/DataSource)>
ChEMBL

>  <First(Article DOI)>
10.1016/j.bmcl.2007.03.098

>  <Mean(PMID)>
17434732

>  <First(Authors)>
Kim, D; Kowalchick, JE; Edmondson, SD; Mastracchio, A; Xu, J; Eiermann, GJ; Leiting, B; Wu, JK; Pryor, KD; Patel, RA; He, H; Lyons, KA; Thornberry, NA; Weber, AE

>  <First(Institution)>
Merck Research Laboratories<span class=m1fontSize>Curated by</span> <a href=http://www.ebi.ac.uk/chembl/>ChEMBL</a>

>  <First(Link to Ligand in BindingDB)>
http://www.bindingdb.org/bind/chemsearch/marvin/MolStructure.jsp?monomerid=50210672

>  <First(Link to Ligand-Target Pair in BindingDB)>
http://www.bindingdb.org/jsp/dbsearch/PrimarySearch_ki.jsp?energyterm=kJ/mole&tag=r21&monomerid=50210672&enzyme=Dipeptidyl+Peptidase+IV+%28DPP-IV%29&column=ki&startPg=0&Increment=50&submit=Search

>  <Mean(PubChem CID)>
44431212

>  <Mean(PubChem SID)>
104087159

>  <First(ZINC ID of Ligand)>
ZINC28820838

>  <Concatenate*(UniProt (SwissProt) Entry Name of Target Chain)>
DPP4_HUMAN

>  <Mean(Number of Protein Chains in Target (>1 implies a multichain complex))>
1

>  <Median(pIC50)>
7.22184874961636

>  <Journal>
BioorgMedChemLett2007

>  <Activity Classes>
7.22184874961636

>  <Conformer_cresset>
1

>  <Similarity_cresset>
0.767

>  <Favorite_cresset>
false

>  <Activity (Median(pIC50))_cresset>
7.22

>  <LE (Median(pIC50))_cresset>
0.337

>  <LipE (Median(pIC50))_cresset>
3.7

>  <Tags_cresset>
test

>  <Confs_cresset>
3

>  <Conf#_cresset>
1

>  <Alns_cresset>
3

>  <MW_cresset>
416.4

>  <#Atoms_cresset>
30

>  <SlogP_cresset>
3.5

>  <TPSA_cresset>
78.7

>  <Flexibility_cresset>
4.9

>  <#RB_cresset>
6

>  <Rof5_cresset>
0

>  <Filename_cresset>
bindingdb_similar_1x70_processed.sdf

>  <Notes_cresset>
42

>  <Selected Alignment_cresset>
true

>  <Alignment Cluster Centre_cresset>
true

>  <_cresset_fieldpoints>
-5      40.332985      48.138115      36.849937     -7.7323
-5      36.319916      48.706223      39.262775     -1.5723
-5      47.583221      49.690308      37.325771    -13.4196
-5      37.492474      45.409946      36.314651     -1.1401
-6      31.366282      50.421764      36.557243      4.4761
-6      44.246277      55.555645      35.474697     10.7722
-6      49.375259      50.181038      31.192696      3.3576
-6      42.994556      55.449383      34.501183     10.8798
-6      41.892189      53.390991      32.802887     11.0936
-7      31.019814      50.331520      36.588566     -1.0152
-7      35.253937      50.248978      33.191540     -2.4179
-7      31.458458      49.888233      38.170097     -1.0126
-7      39.776768      47.862064      36.098133     -2.5448
-7      40.636475      52.480492      38.412479     -2.6511
-7      41.852573      53.188442      32.363537     -1.6908
-7      39.811657      54.256962      33.507782     -1.8707
-7      38.269756      54.430542      36.301796     -2.0584
-7      40.006752      50.149666      32.184772     -1.5095
-7      42.883053      49.539516      34.124500     -2.6356
-7      45.222626      49.938431      33.008091     -2.0570
-7      45.210972      53.022141      31.667810     -2.5540
-7      47.313927      48.796928      34.938053     -1.5970
-7      36.944931      49.265625      32.942257     -2.3929
-7      35.898102      49.115997      39.515087     -2.0493
-7      50.251499      53.624969      35.677952     -1.9433
-7      49.915417      49.659843      31.923775     -1.0233
-7      45.462845      54.345497      37.315609     -2.5831
-8      35.488697      49.775215      36.388142      7.2389
-8      39.292366      51.256714      35.977665      4.9444
-8      43.285267      53.203915      34.873077      3.7986
-8      47.931664      53.408756      33.450764      7.1717
-8      36.779747      51.155121      36.647137      5.6160
-8      43.953583      50.743408      37.515652      2.7965
-8      43.474022      51.944839      36.263859      2.6711

$$$$
