bindingdb_similar_1x70_processed:9
 OpenBabel04261912203D

 44 46  0  0  1  0  0  0  0  0999 V2000
   34.4473   49.2627   36.3124 C   0  0  0  0  0  0  0  0  0  0  0  0
   34.6246   50.5798   36.6655 C   0  0  0  0  0  0  0  0  0  0  0  0
   36.9920   50.3333   36.4274 C   0  0  0  0  0  0  0  0  0  0  0  0
   36.8065   49.0127   36.0814 C   0  0  0  0  0  0  0  0  0  0  0  0
   35.5394   48.4780   36.0209 C   0  0  0  0  0  0  0  0  0  0  0  0
   38.4032   50.9067   36.4674 C   0  0  0  0  0  0  0  0  0  0  0  0
   39.0767   51.0743   35.0856 C   0  0  2  0  0  0  0  0  0  0  0  0
   40.4572   51.7544   35.2042 C   0  0  0  0  0  0  0  0  0  0  0  0
   41.4842   50.9703   35.9956 C   0  0  0  0  0  0  0  0  0  0  0  0
   38.2201   51.9273   34.1954 N   0  3  0  0  0  0  0  0  0  0  0  0
   42.6659   51.6012   36.1690 N   0  0  0  0  0  0  0  0  0  0  0  0
   41.2349   49.8580   36.4398 O   0  0  0  0  0  0  0  0  0  0  0  0
   43.0254   52.8936   35.5294 C   0  0  0  0  0  0  0  0  0  0  0  0
   44.2439   52.6922   34.6028 C   0  0  0  0  0  0  0  0  0  0  0  0
   43.6804   50.9777   37.0449 C   0  0  0  0  0  0  0  0  0  0  0  0
   45.0464   51.1724   36.4219 C   0  0  0  0  0  0  0  0  0  0  0  0
   45.2818   51.9478   35.3312 N   0  0  0  0  0  0  0  0  0  0  0  0
   46.6139   51.8781   35.0454 C   0  0  0  0  0  0  0  0  0  0  0  0
   47.1518   51.1032   35.9388 N   0  0  0  0  0  0  0  0  0  0  0  0
   46.1782   50.6647   36.7967 N   0  0  0  0  0  0  0  0  0  0  0  0
   47.3431   52.5560   33.8973 C   0  0  0  0  0  0  0  0  0  0  0  0
   48.7120   52.3168   33.9476 F   0  0  0  0  0  0  0  0  0  0  0  0
   47.1662   53.9353   33.9115 F   0  0  0  0  0  0  0  0  0  0  0  0
   46.8874   52.0887   32.6691 F   0  0  0  0  0  0  0  0  0  0  0  0
   35.8928   51.1164   36.7224 C   0  0  0  0  0  0  0  0  0  0  0  0
   36.0439   52.4045   37.0654 F   0  0  0  0  0  0  0  0  0  0  0  0
   33.5263   48.8758   36.2683 H   0  0  0  0  0  0  0  0  0  0  0  0
   33.8317   51.1502   36.8801 H   0  0  0  0  0  0  0  0  0  0  0  0
   37.5978   48.4396   35.8682 H   0  0  0  0  0  0  0  0  0  0  0  0
   35.4127   47.5198   35.7646 H   0  0  0  0  0  0  0  0  0  0  0  0
   38.4098   51.9723   37.0194 H   0  0  0  0  0  0  0  0  0  0  0  0
   39.0734   50.1596   37.1227 H   0  0  0  0  0  0  0  0  0  0  0  0
   39.2058   49.9962   34.5732 H   0  0  0  0  0  0  0  0  0  0  0  0
   40.2718   52.8198   35.7249 H   0  0  0  0  0  0  0  0  0  0  0  0
   40.8678   51.8929   34.0848 H   0  0  0  0  0  0  0  0  0  0  0  0
   37.3926   51.5650   34.0852 H   0  0  0  0  0  0  0  0  0  0  0  0
   38.5811   52.0206   33.3648 H   0  0  0  0  0  0  0  0  0  0  0  0
   38.1064   52.7619   34.5426 H   0  0  0  0  0  0  0  0  0  0  0  0
   42.1817   53.4480   34.8858 H   0  0  0  0  0  0  0  0  0  0  0  0
   43.3579   53.6455   36.4029 H   0  0  0  0  0  0  0  0  0  0  0  0
   43.9122   52.0659   33.6341 H   0  0  0  0  0  0  0  0  0  0  0  0
   44.6607   53.7642   34.2626 H   0  0  0  0  0  0  0  0  0  0  0  0
   43.4685   49.8025   37.1596 H   0  0  0  0  0  0  0  0  0  0  0  0
   43.6508   51.4918   38.1281 H   0  0  0  0  0  0  0  0  0  0  0  0
  1  2  2  0  0  0  0
  1  5  1  0  0  0  0
  1 27  1  0  0  0  0
  2 25  1  0  0  0  0
  2 28  1  0  0  0  0
  3  4  1  0  0  0  0
  3  6  1  0  0  0  0
  4  5  2  0  0  0  0
  4 29  1  0  0  0  0
  5 30  1  0  0  0  0
  6 31  1  0  0  0  0
  6 32  1  0  0  0  0
  7  6  1  0  0  0  0
  7  8  1  0  0  0  0
  7 10  1  0  0  0  0
  7 33  1  6  0  0  0
  8  9  1  0  0  0  0
  8 34  1  0  0  0  0
  8 35  1  0  0  0  0
  9 11  1  0  0  0  0
  9 12  2  0  0  0  0
 10 36  1  0  0  0  0
 10 37  1  0  0  0  0
 10 38  1  0  0  0  0
 11 13  1  0  0  0  0
 11 15  1  0  0  0  0
 13 14  1  0  0  0  0
 13 39  1  0  0  0  0
 13 40  1  0  0  0  0
 14 17  1  0  0  0  0
 14 41  1  0  0  0  0
 14 42  1  0  0  0  0
 15 43  1  0  0  0  0
 15 44  1  0  0  0  0
 16 15  1  0  0  0  0
 16 17  1  0  0  0  0
 17 18  1  0  0  0  0
 18 19  2  0  0  0  0
 18 21  1  0  0  0  0
 19 20  1  0  0  0  0
 20 16  2  0  0  0  0
 21 22  1  0  0  0  0
 21 23  1  0  0  0  0
 21 24  1  0  0  0  0
 25  3  2  0  0  0  0
 25 26  1  0  0  0  0
M  CHG  1  10   1
M  END
>  <Mean(IC50 fixed2)>
98

>  <First(BindingDB Ligand Name)>
CHEMBL388475

>  <Concatenate(Target Name Assigned by Curator or DataSource)>
Dipeptidyl Peptidase IV (DPP-IV), Dipeptidyl Peptidase IV (DPP-IV)

>  <First(Target Source Organism According to Curator or DataSource)>
Homo sapiens

>  <First(Curation/DataSource)>
ChEMBL

>  <First(Article DOI)>
10.1016/j.bmcl.2007.03.098

>  <Mean(PMID)>
17979657

>  <First(Authors)>
Kim, D; Kowalchick, JE; Edmondson, SD; Mastracchio, A; Xu, J; Eiermann, GJ; Leiting, B; Wu, JK; Pryor, KD; Patel, RA; He, H; Lyons, KA; Thornberry, NA; Weber, AE

>  <First(Institution)>
Merck Research Laboratories<span class=m1fontSize>Curated by</span> <a href=http://www.ebi.ac.uk/chembl/>ChEMBL</a>

>  <First(Link to Ligand in BindingDB)>
http://www.bindingdb.org/bind/chemsearch/marvin/MolStructure.jsp?monomerid=50210663

>  <First(Link to Ligand-Target Pair in BindingDB)>
http://www.bindingdb.org/jsp/dbsearch/PrimarySearch_ki.jsp?energyterm=kJ/mole&tag=r21&monomerid=50210663&enzyme=Dipeptidyl+Peptidase+IV+%28DPP-IV%29&column=ki&startPg=0&Increment=50&submit=Search

>  <Mean(PubChem CID)>
44431164

>  <Mean(PubChem SID)>
104087150

>  <First(ZINC ID of Ligand)>
ZINC28820689

>  <Concatenate*(UniProt (SwissProt) Entry Name of Target Chain)>
DPP4_HUMAN, DPP4_HUMAN

>  <Mean(Number of Protein Chains in Target (>1 implies a multichain complex))>
1

>  <Median(pIC50)>
7.0087739243075

>  <Journal>
BiorgMedChemLett2007

>  <Activity Classes>
7.0087739243075

>  <Conformer_cresset>
1

>  <Similarity_cresset>
0.814

>  <Favorite_cresset>
false

>  <Activity (Median(pIC50))_cresset>
7.01

>  <LE (Median(pIC50))_cresset>
0.377

>  <LipE (Median(pIC50))_cresset>
5

>  <Tags_cresset>
training

>  <Confs_cresset>
2

>  <Conf#_cresset>
1

>  <Alns_cresset>
2

>  <MW_cresset>
372.3

>  <#Atoms_cresset>
26

>  <SlogP_cresset>
2

>  <TPSA_cresset>
78.7

>  <Flexibility_cresset>
4.9

>  <#RB_cresset>
6

>  <Rof5_cresset>
0

>  <Filename_cresset>
bindingdb_similar_1x70_processed.sdf

>  <Notes_cresset>
20

>  <Selected Alignment_cresset>
true

>  <Alignment Cluster Centre_cresset>
true

>  <_cresset_fieldpoints>
-5      40.546585      48.222393      36.738491     -7.7087
-5      36.251816      48.851730      39.164574     -2.7808
-5      47.843761      49.907692      37.199451    -12.4127
-6      31.523424      50.203396      36.575542      3.8784
-6      32.924633      46.716763      35.479115      3.6521
-6      36.764957      46.028030      34.635624      3.1828
-6      42.063416      53.422447      32.684120     11.2887
-7      32.983948      46.278450      35.604462     -0.9696
-7      35.340736      50.525276      33.226833     -2.2861
-7      31.262239      50.349247      36.852261     -0.9929
-7      36.250607      49.217167      39.523571     -1.9589
-7      37.179928      49.419266      32.859741     -2.2500
-7      43.103775      49.625031      34.011936     -2.7034
-7      40.037258      47.931042      35.961342     -2.4914
-7      40.883156      52.515373      38.362541     -2.6344
-7      38.473312      54.475307      36.371513     -2.0523
-7      39.953491      54.371159      33.508823     -1.8738
-7      40.175758      50.306892      32.102928     -1.5123
-7      41.933598      53.318954      32.269634     -1.6893
-7      44.527195      54.118690      31.676966     -1.5846
-7      47.291363      48.727371      35.540806     -1.4941
-7      47.964882      52.013470      38.019722     -1.4860
-7      45.784931      54.494843      36.928074     -2.3051
-7      49.055279      54.146351      31.146366     -1.1104
-8      35.721630      49.807693      36.372852      7.2120
-8      39.513920      51.319130      35.933258      4.9331
-8      43.462109      53.286396      34.732506      3.7926
-8      44.187870      50.820652      37.373253      2.7920
-8      37.012775      51.176987      36.642021      5.6101
-8      47.361610      52.600193      33.826927      5.6566

$$$$
