@<TRIPOS>MOLECULE
1859
 60 64 0 0 0
SMALL
GASTEIGER
****
Structure written by MMmdl.
@<TRIPOS>ATOM
      1 C         -47.4721    6.8293  -27.6057 C.3     1  LIG1       -0.0587
      2 C         -46.1570    6.2423  -27.0580 C.3     1  LIG1       -0.0215
      3 C         -45.7920    6.8298  -25.6847 C.3     1  LIG1       -0.0587
      4 C         -46.1667    4.7143  -27.0067 C.ar    1  LIG1       -0.0448
      5 C         -47.2083    4.0265  -26.3731 C.ar    1  LIG1       -0.0580
      6 C         -47.1876    2.6368  -26.3009 C.ar    1  LIG1       -0.0551
      7 C         -46.1171    1.9277  -26.8479 C.ar    1  LIG1       -0.0104
      8 C         -45.0913    2.6088  -27.5045 C.ar    1  LIG1       -0.0551
      9 C         -45.1119    3.9981  -27.5775 C.ar    1  LIG1       -0.0580
     10 C         -46.0538    0.4148  -26.7335 C.3     1  LIG1        0.1147
     11 O         -44.8967    0.0818  -25.9724 O.3     1  LIG1       -0.4861
     12 C         -44.5607   -1.2371  -25.7477 C.ar    1  LIG1        0.1383
     13 C         -43.4469   -1.4895  -24.9492 C.ar    1  LIG1        0.0939
     14 C         -43.0691   -2.8093  -24.7232 C.ar    1  LIG1       -0.0329
     15 C         -43.8120   -3.8516  -25.2814 C.ar    1  LIG1       -0.0121
     16 C         -44.9303   -3.5210  -26.0536 C.ar    1  LIG1       -0.0504
     17 C         -45.3094   -2.2381  -26.2957 C.ar    1  LIG1       -0.0181
     18 C         -43.3912   -5.2553  -25.0223 C.ar    1  LIG1        0.0399
     19 C         -44.1181   -6.2319  -24.3390 C.ar    1  LIG1        0.1316
     20 C         -45.4847   -6.2952  -23.8401 C.2     1  LIG1        0.2628
     21 O         -46.4030   -5.5073  -24.0562 O.2     1  LIG1       -0.2685
     22 N         -45.7029   -7.3800  -23.0551 N.am    1  LIG1       -0.3083
     23 C         -44.6774   -8.3505  -22.6202 C.3     1  LIG1        0.0315
     24 C         -43.6309   -8.6109  -23.7317 C.3     1  LIG1        0.0579
     25 N         -43.2737   -7.3202  -24.2988 N.ar    1  LIG1       -0.2566
     26 N         -42.1070   -7.0991  -24.9094 N.ar    1  LIG1       -0.1698
     27 C         -42.1504   -5.8579  -25.3427 C.ar    1  LIG1        0.1013
     28 C         -40.9745   -5.2739  -26.0719 C.ar    1  LIG1        0.0056
     29 C         -41.1477   -4.2963  -27.0626 C.ar    1  LIG1       -0.0343
     30 C         -40.0264   -3.7727  -27.7068 C.ar    1  LIG1        0.0282
     31 N         -38.7618   -4.1787  -27.4346 N.ar    1  LIG1       -0.2632
     32 C         -38.5985   -5.1325  -26.4843 C.ar    1  LIG1        0.0282
     33 C         -39.6669   -5.6976  -25.7859 C.ar    1  LIG1       -0.0343
     34 H         -47.7020    6.4289  -28.5938 H       1  LIG1        0.0235
     35 H         -48.3190    6.6087  -26.9570 H       1  LIG1        0.0235
     36 H         -47.4080    7.9141  -27.6974 H       1  LIG1        0.0235
     37 H         -45.3791    6.5495  -27.7594 H       1  LIG1        0.0343
     38 H         -44.8271    6.4565  -25.3393 H       1  LIG1        0.0235
     39 H         -45.7275    7.9161  -25.7203 H       1  LIG1        0.0235
     40 H         -46.5383    6.5680  -24.9339 H       1  LIG1        0.0235
     41 H         -48.0309    4.5637  -25.9249 H       1  LIG1        0.0620
     42 H         -48.0006    2.1169  -25.8157 H       1  LIG1        0.0621
     43 H         -44.2737    2.0595  -27.9466 H       1  LIG1        0.0621
     44 H         -44.2997    4.5169  -28.0648 H       1  LIG1        0.0620
     45 H         -46.0040   -0.0155  -27.7344 H       1  LIG1        0.0748
     46 H         -46.9529    0.0259  -26.2520 H       1  LIG1        0.0748
     47 H         -42.2033   -3.0199  -24.1153 H       1  LIG1        0.0638
     48 H         -45.5407   -4.2955  -26.4949 H       1  LIG1        0.0625
     49 H         -46.6558   -7.5436  -22.7611 H       1  LIG1        0.1491
     50 H         -45.1527   -9.2795  -22.3050 H       1  LIG1        0.0480
     51 H         -44.2134   -7.9236  -21.7293 H       1  LIG1        0.0480
     52 H         -44.0714   -9.2017  -24.5309 H       1  LIG1        0.0524
     53 H         -42.7438   -9.1224  -23.3559 H       1  LIG1        0.0524
     54 H         -42.1295   -3.9441  -27.3399 H       1  LIG1        0.0639
     55 H         -40.1385   -3.0118  -28.4636 H       1  LIG1        0.0830
     56 H         -37.5843   -5.4436  -26.2815 H       1  LIG1        0.0830
     57 H         -39.4782   -6.4501  -25.0341 H       1  LIG1        0.0639
     58 H         -46.1721   -1.9985  -26.8996 H       1  LIG1        0.0655
     59 N         -42.1057    0.4384  -23.9204 N.1     1  LIG1       -0.1907
     60 C         -42.7145   -0.4368  -24.3874 C.1     1  LIG1        0.1028
@<TRIPOS>BOND
     1     1     2    1
     2     1    34    1
     3     1    35    1
     4     1    36    1
     5     2     3    1
     6     2     4    1
     7     2    37    1
     8     3    38    1
     9     3    39    1
    10     3    40    1
    11     4     5   ar
    12     4     9   ar
    13     5     6   ar
    14     5    41    1
    15     6     7   ar
    16     6    42    1
    17     7     8   ar
    18     7    10    1
    19     8     9   ar
    20     8    43    1
    21     9    44    1
    22    10    11    1
    23    10    45    1
    24    10    46    1
    25    11    12    1
    26    12    13   ar
    27    12    17   ar
    28    13    14   ar
    29    13    60    1
    30    14    15   ar
    31    14    47    1
    32    15    16   ar
    33    15    18    1
    34    16    17   ar
    35    16    48    1
    36    17    58    1
    37    18    19   ar
    38    18    27   ar
    39    19    20    1
    40    19    25   ar
    41    20    21    2
    42    20    22   am
    43    22    23    1
    44    22    49    1
    45    23    24    1
    46    23    50    1
    47    23    51    1
    48    24    25    1
    49    24    52    1
    50    24    53    1
    51    25    26   ar
    52    26    27   ar
    53    27    28    1
    54    28    29   ar
    55    28    33   ar
    56    29    30   ar
    57    29    54    1
    58    30    31   ar
    59    30    55    1
    60    31    32   ar
    61    32    33   ar
    62    32    56    1
    63    33    57    1
    64    59    60    3
