6770
 OpenBabel04181911043D
Structure written by MMmdl.
 56 60  0  0  1  0  0  0  0  0999 V2000
  -47.3947    6.7794  -27.4945 O   0  0  0  0  0  0  0  0  0  0  0  0
  -46.1786    4.7160  -27.0249 C   0  0  0  0  0  0  0  0  0  0  0  0
  -47.2083    4.0265  -26.3731 C   0  0  0  0  0  0  0  0  0  0  0  0
  -47.1876    2.6368  -26.3009 C   0  0  0  0  0  0  0  0  0  0  0  0
  -46.1172    1.9277  -26.8479 C   0  0  0  0  0  0  0  0  0  0  0  0
  -45.0913    2.6088  -27.5045 C   0  0  0  0  0  0  0  0  0  0  0  0
  -45.1119    3.9981  -27.5775 C   0  0  0  0  0  0  0  0  0  0  0  0
  -46.0538    0.4148  -26.7334 C   0  0  0  0  0  0  0  0  0  0  0  0
  -44.8968    0.0817  -25.9724 O   0  0  0  0  0  0  0  0  0  0  0  0
  -44.5607   -1.2371  -25.7477 C   0  0  0  0  0  0  0  0  0  0  0  0
  -43.4469   -1.4895  -24.9492 C   0  0  0  0  0  0  0  0  0  0  0  0
  -43.0691   -2.8093  -24.7232 C   0  0  0  0  0  0  0  0  0  0  0  0
  -43.8120   -3.8516  -25.2814 C   0  0  0  0  0  0  0  0  0  0  0  0
  -44.9303   -3.5210  -26.0536 C   0  0  0  0  0  0  0  0  0  0  0  0
  -45.3094   -2.2381  -26.2957 C   0  0  0  0  0  0  0  0  0  0  0  0
  -43.3912   -5.2553  -25.0223 C   0  0  0  0  0  0  0  0  0  0  0  0
  -44.1181   -6.2319  -24.3390 C   0  0  0  0  0  0  0  0  0  0  0  0
  -45.4847   -6.2952  -23.8401 C   0  0  0  0  0  0  0  0  0  0  0  0
  -46.4030   -5.5073  -24.0562 O   0  0  0  0  0  0  0  0  0  0  0  0
  -45.7029   -7.3800  -23.0551 N   0  0  0  0  0  0  0  0  0  0  0  0
  -44.6774   -8.3505  -22.6202 C   0  0  0  0  0  0  0  0  0  0  0  0
  -43.6309   -8.6109  -23.7317 C   0  0  0  0  0  0  0  0  0  0  0  0
  -43.2737   -7.3202  -24.2988 N   0  0  0  0  0  0  0  0  0  0  0  0
  -42.1070   -7.0991  -24.9094 N   0  0  0  0  0  0  0  0  0  0  0  0
  -42.1504   -5.8579  -25.3427 C   0  0  0  0  0  0  0  0  0  0  0  0
  -40.9745   -5.2739  -26.0719 C   0  0  0  0  0  0  0  0  0  0  0  0
  -41.1477   -4.2963  -27.0626 C   0  0  0  0  0  0  0  0  0  0  0  0
  -40.0264   -3.7727  -27.7068 C   0  0  0  0  0  0  0  0  0  0  0  0
  -38.7618   -4.1787  -27.4346 N   0  0  0  0  0  0  0  0  0  0  0  0
  -38.5985   -5.1325  -26.4843 C   0  0  0  0  0  0  0  0  0  0  0  0
  -39.6669   -5.6976  -25.7859 C   0  0  0  0  0  0  0  0  0  0  0  0
  -48.0309    4.5637  -25.9249 H   0  0  0  0  0  0  0  0  0  0  0  0
  -48.0006    2.1169  -25.8157 H   0  0  0  0  0  0  0  0  0  0  0  0
  -44.2737    2.0595  -27.9466 H   0  0  0  0  0  0  0  0  0  0  0  0
  -44.2997    4.5169  -28.0648 H   0  0  0  0  0  0  0  0  0  0  0  0
  -46.0040   -0.0155  -27.7344 H   0  0  0  0  0  0  0  0  0  0  0  0
  -46.9529    0.0259  -26.2520 H   0  0  0  0  0  0  0  0  0  0  0  0
  -42.8825   -0.6783  -24.5163 H   0  0  0  0  0  0  0  0  0  0  0  0
  -42.2033   -3.0199  -24.1153 H   0  0  0  0  0  0  0  0  0  0  0  0
  -45.5407   -4.2955  -26.4949 H   0  0  0  0  0  0  0  0  0  0  0  0
  -46.6558   -7.5436  -22.7611 H   0  0  0  0  0  0  0  0  0  0  0  0
  -45.1527   -9.2795  -22.3050 H   0  0  0  0  0  0  0  0  0  0  0  0
  -44.2134   -7.9236  -21.7293 H   0  0  0  0  0  0  0  0  0  0  0  0
  -44.0714   -9.2017  -24.5309 H   0  0  0  0  0  0  0  0  0  0  0  0
  -42.7438   -9.1224  -23.3559 H   0  0  0  0  0  0  0  0  0  0  0  0
  -42.1295   -3.9441  -27.3399 H   0  0  0  0  0  0  0  0  0  0  0  0
  -40.1385   -3.0118  -28.4636 H   0  0  0  0  0  0  0  0  0  0  0  0
  -37.5843   -5.4436  -26.2815 H   0  0  0  0  0  0  0  0  0  0  0  0
  -39.4782   -6.4501  -25.0341 H   0  0  0  0  0  0  0  0  0  0  0  0
  -46.1721   -1.9985  -26.8996 H   0  0  0  0  0  0  0  0  0  0  0  0
  -46.2006    6.2099  -27.1498 C   0  0  0  0  0  0  0  0  0  0  0  0
  -45.1909    6.8988  -27.0142 O   0  0  0  0  0  0  0  0  0  0  0  0
  -48.4072    6.1022  -28.2382 C   0  0  0  0  0  0  0  0  0  0  0  0
  -48.9885    6.8266  -28.8111 H   0  0  0  0  0  0  0  0  0  0  0  0
  -47.9890    5.3816  -28.9446 H   0  0  0  0  0  0  0  0  0  0  0  0
  -49.0970    5.5809  -27.5734 H   0  0  0  0  0  0  0  0  0  0  0  0
  1 51  1  0  0  0  0
  1 53  1  0  0  0  0
  2  3  1  0  0  0  0
  2  7  2  0  0  0  0
  2 51  1  0  0  0  0
  3  4  2  0  0  0  0
  3 32  1  0  0  0  0
  4  5  1  0  0  0  0
  4 33  1  0  0  0  0
  5  6  2  0  0  0  0
  5  8  1  0  0  0  0
  6  7  1  0  0  0  0
  6 34  1  0  0  0  0
  7 35  1  0  0  0  0
  8  9  1  0  0  0  0
  8 36  1  0  0  0  0
  8 37  1  0  0  0  0
  9 10  1  0  0  0  0
 10 11  1  0  0  0  0
 10 15  2  0  0  0  0
 11 12  2  0  0  0  0
 11 38  1  0  0  0  0
 12 13  1  0  0  0  0
 12 39  1  0  0  0  0
 13 14  2  0  0  0  0
 13 16  1  0  0  0  0
 14 15  1  0  0  0  0
 14 40  1  0  0  0  0
 15 50  1  0  0  0  0
 16 17  2  0  0  0  0
 16 25  1  0  0  0  0
 17 18  1  0  0  0  0
 17 23  1  0  0  0  0
 18 19  2  0  0  0  0
 18 20  1  0  0  0  0
 20 21  1  0  0  0  0
 20 41  1  0  0  0  0
 21 22  1  0  0  0  0
 21 42  1  0  0  0  0
 21 43  1  0  0  0  0
 22 23  1  0  0  0  0
 22 44  1  0  0  0  0
 22 45  1  0  0  0  0
 23 24  1  0  0  0  0
 24 25  2  0  0  0  0
 25 26  1  0  0  0  0
 26 27  1  0  0  0  0
 26 31  2  0  0  0  0
 27 28  2  0  0  0  0
 27 46  1  0  0  0  0
 28 29  1  0  0  0  0
 28 47  1  0  0  0  0
 29 30  2  0  0  0  0
 30 31  1  0  0  0  0
 30 48  1  0  0  0  0
 31 49  1  0  0  0  0
 51 52  2  0  0  0  0
 53 54  1  0  0  0  0
 53 55  1  0  0  0  0
 53 56  1  0  0  0  0
M  END
>  <entry id>
78

>  <entry name>
54356770

>  <Source Path>
/home/jscheen/projects/ML/sourced_datasets/TestSets/AC_FEP_SI_datasets/ROS1

>  <Source File>
ROS1_inputs_v2.mae

>  <Source File Index>
78

>  <[V] ROS1 pIC50 IRStide substrate (300.236)>
5.62

>  <Pair>
1

>  <chiral flag>
0

>  <version>
0

>  <dpIC50>
2.02

>  <mmshare version>
42013

>  <flags>
0

>  <Force Field>
OPLS3e

>  <Energy>
50.5492223484582

>  <Chiralities Consistent>
1

>  <Variant>
54356770-1

>  <job name>
ligprep_1

>  <Molecular Weight>
454.48964

>  <ALogP>
3.2017

>  <Polar Surface Area>
95.34

>  <Rotatable Bonds>
7

>  <Hbond Donors>
1

>  <Hbond Acceptors>
6

>  <SMILES>
COC(=O)c1ccc(cc1)COc(cc2)ccc2-c3c(-c4ccncc4)nn(c35)CCNC5=O

>  <pred dG>
-8.75

>  <pred dG error>
0.29

>  <subgroup title>
FEP_inputs

>  <subgroupid>
FEP_inputs

>  <subgroup collapsed>
0

$$$$
