8794
 OpenBabel04181911043D
Structure written by MMmdl.
 58 63  0  0  1  0  0  0  0  0999 V2000
  -47.3948    7.0760  -27.0356 C   0  0  0  0  0  0  0  0  0  0  0  0
  -46.1374    6.2294  -27.0574 C   0  0  0  0  0  0  0  0  0  0  0  0
  -46.4555    7.0827  -25.8485 C   0  0  0  0  0  0  0  0  0  0  0  0
  -46.1667    4.7143  -27.0067 C   0  0  0  0  0  0  0  0  0  0  0  0
  -47.2083    4.0265  -26.3731 C   0  0  0  0  0  0  0  0  0  0  0  0
  -47.1876    2.6368  -26.3009 C   0  0  0  0  0  0  0  0  0  0  0  0
  -46.1172    1.9277  -26.8479 C   0  0  0  0  0  0  0  0  0  0  0  0
  -45.0913    2.6088  -27.5045 C   0  0  0  0  0  0  0  0  0  0  0  0
  -45.1119    3.9981  -27.5775 C   0  0  0  0  0  0  0  0  0  0  0  0
  -46.0538    0.4148  -26.7335 C   0  0  0  0  0  0  0  0  0  0  0  0
  -44.8967    0.0818  -25.9724 O   0  0  0  0  0  0  0  0  0  0  0  0
  -44.5607   -1.2371  -25.7477 C   0  0  0  0  0  0  0  0  0  0  0  0
  -43.4469   -1.4895  -24.9492 C   0  0  0  0  0  0  0  0  0  0  0  0
  -43.0691   -2.8093  -24.7232 C   0  0  0  0  0  0  0  0  0  0  0  0
  -43.8120   -3.8516  -25.2814 C   0  0  0  0  0  0  0  0  0  0  0  0
  -44.9303   -3.5210  -26.0536 C   0  0  0  0  0  0  0  0  0  0  0  0
  -45.3094   -2.2381  -26.2957 C   0  0  0  0  0  0  0  0  0  0  0  0
  -43.3912   -5.2553  -25.0223 C   0  0  0  0  0  0  0  0  0  0  0  0
  -44.1181   -6.2319  -24.3390 C   0  0  0  0  0  0  0  0  0  0  0  0
  -45.4847   -6.2952  -23.8401 C   0  0  0  0  0  0  0  0  0  0  0  0
  -46.4030   -5.5073  -24.0562 O   0  0  0  0  0  0  0  0  0  0  0  0
  -45.7029   -7.3800  -23.0551 N   0  0  0  0  0  0  0  0  0  0  0  0
  -44.6774   -8.3505  -22.6202 C   0  0  0  0  0  0  0  0  0  0  0  0
  -43.6309   -8.6109  -23.7317 C   0  0  0  0  0  0  0  0  0  0  0  0
  -43.2737   -7.3202  -24.2988 N   0  0  0  0  0  0  0  0  0  0  0  0
  -42.1070   -7.0991  -24.9094 N   0  0  0  0  0  0  0  0  0  0  0  0
  -42.1504   -5.8579  -25.3427 C   0  0  0  0  0  0  0  0  0  0  0  0
  -40.9745   -5.2739  -26.0719 C   0  0  0  0  0  0  0  0  0  0  0  0
  -41.1477   -4.2963  -27.0626 C   0  0  0  0  0  0  0  0  0  0  0  0
  -40.0264   -3.7727  -27.7068 C   0  0  0  0  0  0  0  0  0  0  0  0
  -38.7618   -4.1787  -27.4346 N   0  0  0  0  0  0  0  0  0  0  0  0
  -38.5985   -5.1325  -26.4843 C   0  0  0  0  0  0  0  0  0  0  0  0
  -39.6669   -5.6976  -25.7859 C   0  0  0  0  0  0  0  0  0  0  0  0
  -48.0309    4.5637  -25.9249 H   0  0  0  0  0  0  0  0  0  0  0  0
  -48.0006    2.1169  -25.8157 H   0  0  0  0  0  0  0  0  0  0  0  0
  -44.2737    2.0595  -27.9466 H   0  0  0  0  0  0  0  0  0  0  0  0
  -44.2997    4.5169  -28.0648 H   0  0  0  0  0  0  0  0  0  0  0  0
  -46.0040   -0.0155  -27.7344 H   0  0  0  0  0  0  0  0  0  0  0  0
  -46.9529    0.0259  -26.2520 H   0  0  0  0  0  0  0  0  0  0  0  0
  -42.8825   -0.6783  -24.5163 H   0  0  0  0  0  0  0  0  0  0  0  0
  -42.2033   -3.0199  -24.1153 H   0  0  0  0  0  0  0  0  0  0  0  0
  -45.5407   -4.2955  -26.4949 H   0  0  0  0  0  0  0  0  0  0  0  0
  -46.6558   -7.5436  -22.7611 H   0  0  0  0  0  0  0  0  0  0  0  0
  -45.1527   -9.2795  -22.3050 H   0  0  0  0  0  0  0  0  0  0  0  0
  -44.2134   -7.9236  -21.7293 H   0  0  0  0  0  0  0  0  0  0  0  0
  -44.0714   -9.2017  -24.5309 H   0  0  0  0  0  0  0  0  0  0  0  0
  -42.7438   -9.1224  -23.3559 H   0  0  0  0  0  0  0  0  0  0  0  0
  -42.1295   -3.9441  -27.3399 H   0  0  0  0  0  0  0  0  0  0  0  0
  -40.1385   -3.0118  -28.4636 H   0  0  0  0  0  0  0  0  0  0  0  0
  -37.5843   -5.4436  -26.2815 H   0  0  0  0  0  0  0  0  0  0  0  0
  -39.4782   -6.4501  -25.0341 H   0  0  0  0  0  0  0  0  0  0  0  0
  -46.1721   -1.9985  -26.8996 H   0  0  0  0  0  0  0  0  0  0  0  0
  -48.3483    6.5475  -27.0157 H   0  0  0  0  0  0  0  0  0  0  0  0
  -47.4327    7.8378  -27.8160 H   0  0  0  0  0  0  0  0  0  0  0  0
  -45.6891    7.8316  -25.6382 H   0  0  0  0  0  0  0  0  0  0  0  0
  -46.6687    6.5371  -24.9280 H   0  0  0  0  0  0  0  0  0  0  0  0
  -44.3085    7.0015  -28.7504 N   0  0  0  0  0  0  0  0  0  0  0  0
  -45.1245    6.6570  -27.9951 C   0  0  0  0  0  0  0  0  0  0  0  0
  1  2  1  0  0  0  0
  1  3  1  0  0  0  0
  1 53  1  0  0  0  0
  1 54  1  0  0  0  0
  2  3  1  0  0  0  0
  2  4  1  0  0  0  0
  2 58  1  0  0  0  0
  3 55  1  0  0  0  0
  3 56  1  0  0  0  0
  4  5  1  0  0  0  0
  4  9  2  0  0  0  0
  5  6  2  0  0  0  0
  5 34  1  0  0  0  0
  6  7  1  0  0  0  0
  6 35  1  0  0  0  0
  7  8  2  0  0  0  0
  7 10  1  0  0  0  0
  8  9  1  0  0  0  0
  8 36  1  0  0  0  0
  9 37  1  0  0  0  0
 10 11  1  0  0  0  0
 10 38  1  0  0  0  0
 10 39  1  0  0  0  0
 11 12  1  0  0  0  0
 12 13  1  0  0  0  0
 12 17  2  0  0  0  0
 13 14  2  0  0  0  0
 13 40  1  0  0  0  0
 14 15  1  0  0  0  0
 14 41  1  0  0  0  0
 15 16  2  0  0  0  0
 15 18  1  0  0  0  0
 16 17  1  0  0  0  0
 16 42  1  0  0  0  0
 17 52  1  0  0  0  0
 18 19  2  0  0  0  0
 18 27  1  0  0  0  0
 19 20  1  0  0  0  0
 19 25  1  0  0  0  0
 20 21  2  0  0  0  0
 20 22  1  0  0  0  0
 22 23  1  0  0  0  0
 22 43  1  0  0  0  0
 23 24  1  0  0  0  0
 23 44  1  0  0  0  0
 23 45  1  0  0  0  0
 24 25  1  0  0  0  0
 24 46  1  0  0  0  0
 24 47  1  0  0  0  0
 25 26  1  0  0  0  0
 26 27  2  0  0  0  0
 27 28  1  0  0  0  0
 28 29  1  0  0  0  0
 28 33  2  0  0  0  0
 29 30  2  0  0  0  0
 29 48  1  0  0  0  0
 30 31  1  0  0  0  0
 30 49  1  0  0  0  0
 31 32  2  0  0  0  0
 32 33  1  0  0  0  0
 32 50  1  0  0  0  0
 33 51  1  0  0  0  0
 57 58  3  0  0  0  0
M  END
>  <entry id>
66

>  <entry name>
54458794

>  <Source Path>
/home/jscheen/projects/ML/sourced_datasets/TestSets/AC_FEP_SI_datasets/ROS1

>  <Source File>
ROS1_inputs_v2.mae

>  <Source File Index>
66

>  <[V] ROS1 pIC50 IRStide substrate (300.236)>
7.37

>  <Pair>
10

>  <chiral flag>
0

>  <version>
0

>  <mmshare version>
42013

>  <flags>
0

>  <Force Field>
OPLS3e

>  <Energy>
66.7362998086968

>  <Chiralities Consistent>
1

>  <Variant>
54458794-1

>  <job name>
ligprep_1

>  <Molecular Weight>
461.52781

>  <ALogP>
3.7678

>  <Polar Surface Area>
92.83

>  <Rotatable Bonds>
6

>  <Hbond Donors>
1

>  <Hbond Acceptors>
5

>  <SMILES>
C1CC1(C#N)c(cc2)ccc2COc(cc3)ccc3-c4c(-c5ccncc5)nn(c46)CCNC6=O

>  <pred dG>
-9.48

>  <pred dG error>
0.29

>  <subgroup title>
FEP_inputs

>  <subgroupid>
FEP_inputs

>  <subgroup collapsed>
0

$$$$
