@<TRIPOS>MOLECULE
5602
 59 63 0 0 0
SMALL
GASTEIGER
****
Structure written by MMmdl.
@<TRIPOS>ATOM
      1 C         -46.1667    4.7143  -27.0067 C.ar    1  LIG1       -0.0583
      2 C         -47.2083    4.0265  -26.3731 C.ar    1  LIG1       -0.0444
      3 C         -47.1876    2.6368  -26.3009 C.ar    1  LIG1       -0.0519
      4 C         -46.1171    1.9277  -26.8479 C.ar    1  LIG1       -0.0101
      5 C         -45.0913    2.6088  -27.5045 C.ar    1  LIG1       -0.0553
      6 C         -45.1119    3.9981  -27.5775 C.ar    1  LIG1       -0.0611
      7 C         -46.0538    0.4148  -26.7335 C.3     1  LIG1        0.1146
      8 O         -44.8967    0.0818  -25.9724 O.3     1  LIG1       -0.4874
      9 C         -44.5607   -1.2371  -25.7477 C.ar    1  LIG1        0.1210
     10 C         -43.4469   -1.4895  -24.9492 C.ar    1  LIG1       -0.0193
     11 C         -43.0691   -2.8093  -24.7232 C.ar    1  LIG1       -0.0504
     12 C         -43.8120   -3.8516  -25.2814 C.ar    1  LIG1       -0.0134
     13 C         -44.9303   -3.5210  -26.0536 C.ar    1  LIG1       -0.0504
     14 C         -45.3094   -2.2381  -26.2957 C.ar    1  LIG1       -0.0193
     15 C         -43.3912   -5.2553  -25.0223 C.ar    1  LIG1        0.0398
     16 C         -44.1181   -6.2319  -24.3390 C.ar    1  LIG1        0.1316
     17 C         -45.4847   -6.2952  -23.8401 C.2     1  LIG1        0.2628
     18 O         -46.4030   -5.5073  -24.0562 O.2     1  LIG1       -0.2685
     19 N         -45.7029   -7.3800  -23.0551 N.am    1  LIG1       -0.3083
     20 C         -44.6774   -8.3505  -22.6202 C.3     1  LIG1        0.0315
     21 C         -43.6309   -8.6109  -23.7317 C.3     1  LIG1        0.0579
     22 N         -43.2737   -7.3202  -24.2988 N.ar    1  LIG1       -0.2566
     23 N         -42.1070   -7.0991  -24.9094 N.ar    1  LIG1       -0.1698
     24 C         -42.1504   -5.8579  -25.3427 C.ar    1  LIG1        0.1013
     25 C         -40.9745   -5.2739  -26.0719 C.ar    1  LIG1        0.0056
     26 C         -41.1477   -4.2963  -27.0626 C.ar    1  LIG1       -0.0343
     27 C         -40.0264   -3.7727  -27.7068 C.ar    1  LIG1        0.0282
     28 N         -38.7618   -4.1787  -27.4346 N.ar    1  LIG1       -0.2632
     29 C         -38.5985   -5.1325  -26.4843 C.ar    1  LIG1        0.0282
     30 C         -39.6669   -5.6976  -25.7859 C.ar    1  LIG1       -0.0343
     31 C         -48.3814    4.7926  -25.7340 C.3     1  LIG1       -0.0215
     32 H         -48.0006    2.1169  -25.8157 H       1  LIG1        0.0624
     33 H         -44.2737    2.0595  -27.9466 H       1  LIG1        0.0621
     34 H         -44.2997    4.5169  -28.0648 H       1  LIG1        0.0618
     35 H         -46.0040   -0.0155  -27.7344 H       1  LIG1        0.0748
     36 H         -46.9529    0.0259  -26.2520 H       1  LIG1        0.0748
     37 H         -42.8825   -0.6783  -24.5163 H       1  LIG1        0.0654
     38 H         -42.2033   -3.0199  -24.1153 H       1  LIG1        0.0625
     39 H         -45.5407   -4.2955  -26.4949 H       1  LIG1        0.0625
     40 H         -46.6558   -7.5436  -22.7611 H       1  LIG1        0.1491
     41 H         -45.1527   -9.2795  -22.3050 H       1  LIG1        0.0480
     42 H         -44.2134   -7.9236  -21.7293 H       1  LIG1        0.0480
     43 H         -44.0714   -9.2017  -24.5309 H       1  LIG1        0.0524
     44 H         -42.7438   -9.1224  -23.3559 H       1  LIG1        0.0524
     45 H         -42.1295   -3.9441  -27.3399 H       1  LIG1        0.0639
     46 H         -40.1385   -3.0118  -28.4636 H       1  LIG1        0.0830
     47 H         -37.5843   -5.4436  -26.2815 H       1  LIG1        0.0830
     48 H         -39.4782   -6.4501  -25.0341 H       1  LIG1        0.0639
     49 H         -46.1721   -1.9985  -26.8996 H       1  LIG1        0.0654
     50 H         -46.1812    5.7933  -27.0523 H       1  LIG1        0.0620
     51 H         -49.0832    4.0833  -25.2952 H       1  LIG1        0.0343
     52 C         -47.8458    5.7298  -24.6357 C.3     1  LIG1       -0.0586
     53 C         -49.1003    5.6246  -26.8122 C.3     1  LIG1       -0.0586
     54 H         -49.9306    6.1668  -26.3598 H       1  LIG1        0.0235
     55 H         -48.3994    6.3347  -27.2512 H       1  LIG1        0.0235
     56 H         -49.4803    4.9620  -27.5898 H       1  LIG1        0.0235
     57 H         -48.6761    6.2721  -24.1833 H       1  LIG1        0.0235
     58 H         -47.3373    5.1418  -23.8716 H       1  LIG1        0.0235
     59 H         -47.1443    6.4400  -25.0736 H       1  LIG1        0.0235
@<TRIPOS>BOND
     1     1     2   ar
     2     1     6   ar
     3     1    50    1
     4     2     3   ar
     5     2    31    1
     6     3     4   ar
     7     3    32    1
     8     4     5   ar
     9     4     7    1
    10     5     6   ar
    11     5    33    1
    12     6    34    1
    13     7     8    1
    14     7    35    1
    15     7    36    1
    16     8     9    1
    17     9    10   ar
    18     9    14   ar
    19    10    11   ar
    20    10    37    1
    21    11    12   ar
    22    11    38    1
    23    12    13   ar
    24    12    15    1
    25    13    14   ar
    26    13    39    1
    27    14    49    1
    28    15    16   ar
    29    15    24   ar
    30    16    17    1
    31    16    22   ar
    32    17    18    2
    33    17    19   am
    34    19    20    1
    35    19    40    1
    36    20    21    1
    37    20    41    1
    38    20    42    1
    39    21    22    1
    40    21    43    1
    41    21    44    1
    42    22    23   ar
    43    23    24   ar
    44    24    25    1
    45    25    26   ar
    46    25    30   ar
    47    26    27   ar
    48    26    45    1
    49    27    28   ar
    50    27    46    1
    51    28    29   ar
    52    29    30   ar
    53    29    47    1
    54    30    48    1
    55    31    51    1
    56    31    52    1
    57    31    53    1
    58    52    57    1
    59    52    58    1
    60    52    59    1
    61    53    54    1
    62    53    55    1
    63    53    56    1
