@<TRIPOS>MOLECULE
0529
 62 66 0 0 0
SMALL
GASTEIGER
****
Structure written by MMmdl.
@<TRIPOS>ATOM
      1 C         -46.1570    6.2423  -27.0580 C.3     1  LIG1       -0.0253
      2 C         -45.7920    6.8298  -25.6847 C.3     1  LIG1       -0.0427
      3 C         -46.1667    4.7143  -27.0067 C.ar    1  LIG1       -0.0471
      4 C         -47.2083    4.0265  -26.3731 C.ar    1  LIG1       -0.0582
      5 C         -47.1876    2.6368  -26.3009 C.ar    1  LIG1       -0.0551
      6 C         -46.1171    1.9277  -26.8479 C.ar    1  LIG1       -0.0104
      7 C         -45.0913    2.6088  -27.5045 C.ar    1  LIG1       -0.0551
      8 C         -45.1119    3.9981  -27.5775 C.ar    1  LIG1       -0.0582
      9 C         -46.0538    0.4148  -26.7335 C.3     1  LIG1        0.1146
     10 O         -44.8967    0.0818  -25.9724 O.3     1  LIG1       -0.4874
     11 C         -44.5607   -1.2371  -25.7477 C.ar    1  LIG1        0.1210
     12 C         -43.4469   -1.4895  -24.9492 C.ar    1  LIG1       -0.0193
     13 C         -43.0691   -2.8093  -24.7232 C.ar    1  LIG1       -0.0504
     14 C         -43.8120   -3.8516  -25.2814 C.ar    1  LIG1       -0.0134
     15 C         -44.9303   -3.5210  -26.0536 C.ar    1  LIG1       -0.0504
     16 C         -45.3094   -2.2381  -26.2957 C.ar    1  LIG1       -0.0193
     17 C         -43.3912   -5.2553  -25.0223 C.ar    1  LIG1        0.0398
     18 C         -44.1181   -6.2319  -24.3390 C.ar    1  LIG1        0.1316
     19 C         -45.4847   -6.2952  -23.8401 C.2     1  LIG1        0.2628
     20 O         -46.4030   -5.5073  -24.0562 O.2     1  LIG1       -0.2685
     21 N         -45.7029   -7.3800  -23.0551 N.am    1  LIG1       -0.3083
     22 C         -44.6774   -8.3505  -22.6202 C.3     1  LIG1        0.0315
     23 C         -43.6309   -8.6109  -23.7317 C.3     1  LIG1        0.0579
     24 N         -43.2737   -7.3202  -24.2988 N.ar    1  LIG1       -0.2566
     25 N         -42.1070   -7.0991  -24.9094 N.ar    1  LIG1       -0.1698
     26 C         -42.1504   -5.8579  -25.3427 C.ar    1  LIG1        0.1013
     27 C         -40.9745   -5.2739  -26.0719 C.ar    1  LIG1        0.0056
     28 C         -41.1477   -4.2963  -27.0626 C.ar    1  LIG1       -0.0343
     29 C         -40.0264   -3.7727  -27.7068 C.ar    1  LIG1        0.0282
     30 N         -38.7618   -4.1787  -27.4346 N.ar    1  LIG1       -0.2632
     31 C         -38.5985   -5.1325  -26.4843 C.ar    1  LIG1        0.0282
     32 C         -39.6669   -5.6976  -25.7859 C.ar    1  LIG1       -0.0343
     33 H         -45.3791    6.5495  -27.7594 H       1  LIG1        0.0316
     34 C         -44.4297    6.3027  -25.1970 C.3     1  LIG1       -0.0624
     35 C         -45.7007    8.3662  -25.7350 C.3     1  LIG1       -0.0624
     36 H         -46.5383    6.5680  -24.9339 H       1  LIG1        0.0299
     37 H         -48.0309    4.5637  -25.9249 H       1  LIG1        0.0620
     38 H         -48.0006    2.1169  -25.8157 H       1  LIG1        0.0621
     39 H         -44.2737    2.0595  -27.9466 H       1  LIG1        0.0621
     40 H         -44.2997    4.5169  -28.0648 H       1  LIG1        0.0620
     41 H         -46.0040   -0.0155  -27.7344 H       1  LIG1        0.0748
     42 H         -46.9529    0.0259  -26.2520 H       1  LIG1        0.0748
     43 H         -42.8825   -0.6783  -24.5163 H       1  LIG1        0.0654
     44 H         -42.2033   -3.0199  -24.1153 H       1  LIG1        0.0625
     45 H         -45.5407   -4.2955  -26.4949 H       1  LIG1        0.0625
     46 H         -46.6558   -7.5436  -22.7611 H       1  LIG1        0.1491
     47 H         -45.1527   -9.2795  -22.3050 H       1  LIG1        0.0480
     48 H         -44.2134   -7.9236  -21.7293 H       1  LIG1        0.0480
     49 H         -44.0714   -9.2017  -24.5309 H       1  LIG1        0.0524
     50 H         -42.7438   -9.1224  -23.3559 H       1  LIG1        0.0524
     51 H         -42.1295   -3.9441  -27.3399 H       1  LIG1        0.0639
     52 H         -40.1385   -3.0118  -28.4636 H       1  LIG1        0.0830
     53 H         -37.5843   -5.4436  -26.2815 H       1  LIG1        0.0830
     54 H         -39.4782   -6.4501  -25.0341 H       1  LIG1        0.0639
     55 H         -46.1721   -1.9985  -26.8996 H       1  LIG1        0.0654
     56 H         -47.1280    6.6159  -27.3830 H       1  LIG1        0.0316
     57 H         -44.1992    6.7359  -24.2237 H       1  LIG1        0.0232
     58 H         -44.4694    5.2169  -25.1107 H       1  LIG1        0.0232
     59 H         -43.6548    6.5818  -25.9110 H       1  LIG1        0.0232
     60 H         -45.4411    8.7478  -24.7476 H       1  LIG1        0.0232
     61 H         -44.9343    8.6619  -26.4514 H       1  LIG1        0.0232
     62 H         -46.6622    8.7780  -26.0418 H       1  LIG1        0.0232
@<TRIPOS>BOND
     1     1     2    1
     2     1     3    1
     3     1    33    1
     4     1    56    1
     5     2    34    1
     6     2    35    1
     7     2    36    1
     8     3     4   ar
     9     3     8   ar
    10     4     5   ar
    11     4    37    1
    12     5     6   ar
    13     5    38    1
    14     6     7   ar
    15     6     9    1
    16     7     8   ar
    17     7    39    1
    18     8    40    1
    19     9    10    1
    20     9    41    1
    21     9    42    1
    22    10    11    1
    23    11    12   ar
    24    11    16   ar
    25    12    13   ar
    26    12    43    1
    27    13    14   ar
    28    13    44    1
    29    14    15   ar
    30    14    17    1
    31    15    16   ar
    32    15    45    1
    33    16    55    1
    34    17    18   ar
    35    17    26   ar
    36    18    19    1
    37    18    24   ar
    38    19    20    2
    39    19    21   am
    40    21    22    1
    41    21    46    1
    42    22    23    1
    43    22    47    1
    44    22    48    1
    45    23    24    1
    46    23    49    1
    47    23    50    1
    48    24    25   ar
    49    25    26   ar
    50    26    27    1
    51    27    28   ar
    52    27    32   ar
    53    28    29   ar
    54    28    51    1
    55    29    30   ar
    56    29    52    1
    57    30    31   ar
    58    31    32   ar
    59    31    53    1
    60    32    54    1
    61    34    57    1
    62    34    58    1
    63    34    59    1
    64    35    60    1
    65    35    61    1
    66    35    62    1
