@<TRIPOS>MOLECULE
3507
 53 57 0 0 0
SMALL
GASTEIGER
****
Structure written by MMmdl.
@<TRIPOS>ATOM
      1 C         -46.1570    6.2423  -27.0580 C.3     1  LIG1       -0.0397
      2 C         -46.1667    4.7143  -27.0067 C.ar    1  LIG1       -0.0504
      3 C         -47.2083    4.0265  -26.3731 C.ar    1  LIG1       -0.0585
      4 C         -47.1876    2.6368  -26.3009 C.ar    1  LIG1       -0.0551
      5 C         -46.1171    1.9277  -26.8479 C.ar    1  LIG1       -0.0104
      6 C         -45.0913    2.6088  -27.5045 C.ar    1  LIG1       -0.0551
      7 C         -45.1119    3.9981  -27.5775 C.ar    1  LIG1       -0.0585
      8 C         -46.0538    0.4148  -26.7335 C.3     1  LIG1        0.1146
      9 O         -44.8967    0.0818  -25.9724 O.3     1  LIG1       -0.4874
     10 C         -44.5607   -1.2371  -25.7477 C.ar    1  LIG1        0.1210
     11 C         -43.4469   -1.4895  -24.9492 C.ar    1  LIG1       -0.0193
     12 C         -43.0691   -2.8093  -24.7232 C.ar    1  LIG1       -0.0504
     13 C         -43.8120   -3.8516  -25.2814 C.ar    1  LIG1       -0.0134
     14 C         -44.9303   -3.5210  -26.0536 C.ar    1  LIG1       -0.0504
     15 C         -45.3094   -2.2381  -26.2957 C.ar    1  LIG1       -0.0193
     16 C         -43.3912   -5.2553  -25.0223 C.ar    1  LIG1        0.0398
     17 C         -44.1181   -6.2319  -24.3390 C.ar    1  LIG1        0.1316
     18 C         -45.4847   -6.2952  -23.8401 C.2     1  LIG1        0.2628
     19 O         -46.4030   -5.5073  -24.0562 O.2     1  LIG1       -0.2685
     20 N         -45.7029   -7.3800  -23.0551 N.am    1  LIG1       -0.3083
     21 C         -44.6774   -8.3505  -22.6202 C.3     1  LIG1        0.0315
     22 C         -43.6309   -8.6109  -23.7317 C.3     1  LIG1        0.0579
     23 N         -43.2737   -7.3202  -24.2988 N.ar    1  LIG1       -0.2566
     24 N         -42.1070   -7.0991  -24.9094 N.ar    1  LIG1       -0.1698
     25 C         -42.1504   -5.8579  -25.3427 C.ar    1  LIG1        0.1013
     26 C         -40.9745   -5.2739  -26.0719 C.ar    1  LIG1        0.0056
     27 C         -41.1477   -4.2963  -27.0626 C.ar    1  LIG1       -0.0343
     28 C         -40.0264   -3.7727  -27.7068 C.ar    1  LIG1        0.0282
     29 N         -38.7618   -4.1787  -27.4346 N.ar    1  LIG1       -0.2632
     30 C         -38.5985   -5.1325  -26.4843 C.ar    1  LIG1        0.0282
     31 C         -39.6669   -5.6976  -25.7859 C.ar    1  LIG1       -0.0343
     32 H         -45.3791    6.5495  -27.7594 H       1  LIG1        0.0278
     33 H         -48.0309    4.5637  -25.9249 H       1  LIG1        0.0620
     34 H         -48.0006    2.1169  -25.8157 H       1  LIG1        0.0621
     35 H         -44.2737    2.0595  -27.9466 H       1  LIG1        0.0621
     36 H         -44.2997    4.5169  -28.0648 H       1  LIG1        0.0620
     37 H         -46.0040   -0.0155  -27.7344 H       1  LIG1        0.0748
     38 H         -46.9529    0.0259  -26.2520 H       1  LIG1        0.0748
     39 H         -42.8825   -0.6783  -24.5163 H       1  LIG1        0.0654
     40 H         -42.2033   -3.0199  -24.1153 H       1  LIG1        0.0625
     41 H         -45.5407   -4.2955  -26.4949 H       1  LIG1        0.0625
     42 H         -46.6558   -7.5436  -22.7611 H       1  LIG1        0.1491
     43 H         -45.1527   -9.2795  -22.3050 H       1  LIG1        0.0480
     44 H         -44.2134   -7.9236  -21.7293 H       1  LIG1        0.0480
     45 H         -44.0714   -9.2017  -24.5309 H       1  LIG1        0.0524
     46 H         -42.7438   -9.1224  -23.3559 H       1  LIG1        0.0524
     47 H         -42.1295   -3.9441  -27.3399 H       1  LIG1        0.0639
     48 H         -40.1385   -3.0118  -28.4636 H       1  LIG1        0.0830
     49 H         -37.5843   -5.4436  -26.2815 H       1  LIG1        0.0830
     50 H         -39.4782   -6.4501  -25.0341 H       1  LIG1        0.0639
     51 H         -46.1721   -1.9985  -26.8996 H       1  LIG1        0.0654
     52 H         -47.1280    6.6159  -27.3830 H       1  LIG1        0.0278
     53 H         -45.9292    6.6372  -26.0679 H       1  LIG1        0.0278
@<TRIPOS>BOND
     1     1     2    1
     2     1    32    1
     3     1    52    1
     4     1    53    1
     5     2     3   ar
     6     2     7   ar
     7     3     4   ar
     8     3    33    1
     9     4     5   ar
    10     4    34    1
    11     5     6   ar
    12     5     8    1
    13     6     7   ar
    14     6    35    1
    15     7    36    1
    16     8     9    1
    17     8    37    1
    18     8    38    1
    19     9    10    1
    20    10    11   ar
    21    10    15   ar
    22    11    12   ar
    23    11    39    1
    24    12    13   ar
    25    12    40    1
    26    13    14   ar
    27    13    16    1
    28    14    15   ar
    29    14    41    1
    30    15    51    1
    31    16    17   ar
    32    16    25   ar
    33    17    18    1
    34    17    23   ar
    35    18    19    2
    36    18    20   am
    37    20    21    1
    38    20    42    1
    39    21    22    1
    40    21    43    1
    41    21    44    1
    42    22    23    1
    43    22    45    1
    44    22    46    1
    45    23    24   ar
    46    24    25   ar
    47    25    26    1
    48    26    27   ar
    49    26    31   ar
    50    27    28   ar
    51    27    47    1
    52    28    29   ar
    53    28    48    1
    54    29    30   ar
    55    30    31   ar
    56    30    49    1
    57    31    50    1
