@<TRIPOS>MOLECULE
8794
 58 63 0 0 0
SMALL
GASTEIGER
****
Structure written by MMmdl.
@<TRIPOS>ATOM
      1 C         -47.3948    7.0760  -27.0356 C.3     1  LIG1       -0.0287
      2 C         -46.1374    6.2294  -27.0574 C.3     1  LIG1        0.0823
      3 C         -46.4555    7.0827  -25.8485 C.3     1  LIG1       -0.0287
      4 C         -46.1667    4.7143  -27.0067 C.ar    1  LIG1       -0.0275
      5 C         -47.2083    4.0265  -26.3731 C.ar    1  LIG1       -0.0567
      6 C         -47.1876    2.6368  -26.3009 C.ar    1  LIG1       -0.0551
      7 C         -46.1172    1.9277  -26.8479 C.ar    1  LIG1       -0.0104
      8 C         -45.0913    2.6088  -27.5045 C.ar    1  LIG1       -0.0551
      9 C         -45.1119    3.9981  -27.5775 C.ar    1  LIG1       -0.0567
     10 C         -46.0538    0.4148  -26.7335 C.3     1  LIG1        0.1146
     11 O         -44.8967    0.0818  -25.9724 O.3     1  LIG1       -0.4874
     12 C         -44.5607   -1.2371  -25.7477 C.ar    1  LIG1        0.1210
     13 C         -43.4469   -1.4895  -24.9492 C.ar    1  LIG1       -0.0193
     14 C         -43.0691   -2.8093  -24.7232 C.ar    1  LIG1       -0.0504
     15 C         -43.8120   -3.8516  -25.2814 C.ar    1  LIG1       -0.0134
     16 C         -44.9303   -3.5210  -26.0536 C.ar    1  LIG1       -0.0504
     17 C         -45.3094   -2.2381  -26.2957 C.ar    1  LIG1       -0.0193
     18 C         -43.3912   -5.2553  -25.0223 C.ar    1  LIG1        0.0398
     19 C         -44.1181   -6.2319  -24.3390 C.ar    1  LIG1        0.1316
     20 C         -45.4847   -6.2952  -23.8401 C.2     1  LIG1        0.2628
     21 O         -46.4030   -5.5073  -24.0562 O.2     1  LIG1       -0.2685
     22 N         -45.7029   -7.3800  -23.0551 N.am    1  LIG1       -0.3083
     23 C         -44.6774   -8.3505  -22.6202 C.3     1  LIG1        0.0315
     24 C         -43.6309   -8.6109  -23.7317 C.3     1  LIG1        0.0579
     25 N         -43.2737   -7.3202  -24.2988 N.ar    1  LIG1       -0.2566
     26 N         -42.1070   -7.0991  -24.9094 N.ar    1  LIG1       -0.1698
     27 C         -42.1504   -5.8579  -25.3427 C.ar    1  LIG1        0.1013
     28 C         -40.9745   -5.2739  -26.0719 C.ar    1  LIG1        0.0056
     29 C         -41.1477   -4.2963  -27.0626 C.ar    1  LIG1       -0.0343
     30 C         -40.0264   -3.7727  -27.7068 C.ar    1  LIG1        0.0282
     31 N         -38.7618   -4.1787  -27.4346 N.ar    1  LIG1       -0.2632
     32 C         -38.5985   -5.1325  -26.4843 C.ar    1  LIG1        0.0282
     33 C         -39.6669   -5.6976  -25.7859 C.ar    1  LIG1       -0.0343
     34 H         -48.0309    4.5637  -25.9249 H       1  LIG1        0.0621
     35 H         -48.0006    2.1169  -25.8157 H       1  LIG1        0.0621
     36 H         -44.2737    2.0595  -27.9466 H       1  LIG1        0.0621
     37 H         -44.2997    4.5169  -28.0648 H       1  LIG1        0.0621
     38 H         -46.0040   -0.0155  -27.7344 H       1  LIG1        0.0748
     39 H         -46.9529    0.0259  -26.2520 H       1  LIG1        0.0748
     40 H         -42.8825   -0.6783  -24.5163 H       1  LIG1        0.0654
     41 H         -42.2033   -3.0199  -24.1153 H       1  LIG1        0.0625
     42 H         -45.5407   -4.2955  -26.4949 H       1  LIG1        0.0625
     43 H         -46.6558   -7.5436  -22.7611 H       1  LIG1        0.1491
     44 H         -45.1527   -9.2795  -22.3050 H       1  LIG1        0.0480
     45 H         -44.2134   -7.9236  -21.7293 H       1  LIG1        0.0480
     46 H         -44.0714   -9.2017  -24.5309 H       1  LIG1        0.0524
     47 H         -42.7438   -9.1224  -23.3559 H       1  LIG1        0.0524
     48 H         -42.1295   -3.9441  -27.3399 H       1  LIG1        0.0639
     49 H         -40.1385   -3.0118  -28.4636 H       1  LIG1        0.0830
     50 H         -37.5843   -5.4436  -26.2815 H       1  LIG1        0.0830
     51 H         -39.4782   -6.4501  -25.0341 H       1  LIG1        0.0639
     52 H         -46.1721   -1.9985  -26.8996 H       1  LIG1        0.0654
     53 H         -48.3483    6.5475  -27.0157 H       1  LIG1        0.0284
     54 H         -47.4327    7.8378  -27.8160 H       1  LIG1        0.0284
     55 H         -45.6891    7.8316  -25.6382 H       1  LIG1        0.0284
     56 H         -46.6687    6.5371  -24.9280 H       1  LIG1        0.0284
     57 N         -44.3085    7.0015  -28.7504 N.1     1  LIG1       -0.1956
     58 C         -45.1245    6.6570  -27.9951 C.1     1  LIG1        0.0739
@<TRIPOS>BOND
     1     1     2    1
     2     1     3    1
     3     1    53    1
     4     1    54    1
     5     2     3    1
     6     2     4    1
     7     2    58    1
     8     3    55    1
     9     3    56    1
    10     4     5   ar
    11     4     9   ar
    12     5     6   ar
    13     5    34    1
    14     6     7   ar
    15     6    35    1
    16     7     8   ar
    17     7    10    1
    18     8     9   ar
    19     8    36    1
    20     9    37    1
    21    10    11    1
    22    10    38    1
    23    10    39    1
    24    11    12    1
    25    12    13   ar
    26    12    17   ar
    27    13    14   ar
    28    13    40    1
    29    14    15   ar
    30    14    41    1
    31    15    16   ar
    32    15    18    1
    33    16    17   ar
    34    16    42    1
    35    17    52    1
    36    18    19   ar
    37    18    27   ar
    38    19    20    1
    39    19    25   ar
    40    20    21    2
    41    20    22   am
    42    22    23    1
    43    22    43    1
    44    23    24    1
    45    23    44    1
    46    23    45    1
    47    24    25    1
    48    24    46    1
    49    24    47    1
    50    25    26   ar
    51    26    27   ar
    52    27    28    1
    53    28    29   ar
    54    28    33   ar
    55    29    30   ar
    56    29    48    1
    57    30    31   ar
    58    30    49    1
    59    31    32   ar
    60    32    33   ar
    61    32    50    1
    62    33    51    1
    63    57    58    3
