@<TRIPOS>MOLECULE
6770
 56 60 0 0 0
SMALL
GASTEIGER
****
Structure written by MMmdl.
@<TRIPOS>ATOM
      1 O         -47.3947    6.7794  -27.4945 O.3     1  LIG1       -0.4645
      2 C         -46.1786    4.7160  -27.0249 C.ar    1  LIG1        0.0590
      3 C         -47.2083    4.0265  -26.3731 C.ar    1  LIG1       -0.0474
      4 C         -47.1876    2.6368  -26.3009 C.ar    1  LIG1       -0.0546
      5 C         -46.1172    1.9277  -26.8479 C.ar    1  LIG1       -0.0104
      6 C         -45.0913    2.6088  -27.5045 C.ar    1  LIG1       -0.0546
      7 C         -45.1119    3.9981  -27.5775 C.ar    1  LIG1       -0.0474
      8 C         -46.0538    0.4148  -26.7334 C.3     1  LIG1        0.1146
      9 O         -44.8968    0.0817  -25.9724 O.3     1  LIG1       -0.4874
     10 C         -44.5607   -1.2371  -25.7477 C.ar    1  LIG1        0.1210
     11 C         -43.4469   -1.4895  -24.9492 C.ar    1  LIG1       -0.0193
     12 C         -43.0691   -2.8093  -24.7232 C.ar    1  LIG1       -0.0504
     13 C         -43.8120   -3.8516  -25.2814 C.ar    1  LIG1       -0.0134
     14 C         -44.9303   -3.5210  -26.0536 C.ar    1  LIG1       -0.0504
     15 C         -45.3094   -2.2381  -26.2957 C.ar    1  LIG1       -0.0193
     16 C         -43.3912   -5.2553  -25.0223 C.ar    1  LIG1        0.0398
     17 C         -44.1181   -6.2319  -24.3390 C.ar    1  LIG1        0.1316
     18 C         -45.4847   -6.2952  -23.8401 C.2     1  LIG1        0.2628
     19 O         -46.4030   -5.5073  -24.0562 O.2     1  LIG1       -0.2685
     20 N         -45.7029   -7.3800  -23.0551 N.am    1  LIG1       -0.3083
     21 C         -44.6774   -8.3505  -22.6202 C.3     1  LIG1        0.0315
     22 C         -43.6309   -8.6109  -23.7317 C.3     1  LIG1        0.0579
     23 N         -43.2737   -7.3202  -24.2988 N.ar    1  LIG1       -0.2566
     24 N         -42.1070   -7.0991  -24.9094 N.ar    1  LIG1       -0.1698
     25 C         -42.1504   -5.8579  -25.3427 C.ar    1  LIG1        0.1013
     26 C         -40.9745   -5.2739  -26.0719 C.ar    1  LIG1        0.0056
     27 C         -41.1477   -4.2963  -27.0626 C.ar    1  LIG1       -0.0343
     28 C         -40.0264   -3.7727  -27.7068 C.ar    1  LIG1        0.0282
     29 N         -38.7618   -4.1787  -27.4346 N.ar    1  LIG1       -0.2632
     30 C         -38.5985   -5.1325  -26.4843 C.ar    1  LIG1        0.0282
     31 C         -39.6669   -5.6976  -25.7859 C.ar    1  LIG1       -0.0343
     32 H         -48.0309    4.5637  -25.9249 H       1  LIG1        0.0626
     33 H         -48.0006    2.1169  -25.8157 H       1  LIG1        0.0622
     34 H         -44.2737    2.0595  -27.9466 H       1  LIG1        0.0622
     35 H         -44.2997    4.5169  -28.0648 H       1  LIG1        0.0626
     36 H         -46.0040   -0.0155  -27.7344 H       1  LIG1        0.0748
     37 H         -46.9529    0.0259  -26.2520 H       1  LIG1        0.0748
     38 H         -42.8825   -0.6783  -24.5163 H       1  LIG1        0.0654
     39 H         -42.2033   -3.0199  -24.1153 H       1  LIG1        0.0625
     40 H         -45.5407   -4.2955  -26.4949 H       1  LIG1        0.0625
     41 H         -46.6558   -7.5436  -22.7611 H       1  LIG1        0.1491
     42 H         -45.1527   -9.2795  -22.3050 H       1  LIG1        0.0480
     43 H         -44.2134   -7.9236  -21.7293 H       1  LIG1        0.0480
     44 H         -44.0714   -9.2017  -24.5309 H       1  LIG1        0.0524
     45 H         -42.7438   -9.1224  -23.3559 H       1  LIG1        0.0524
     46 H         -42.1295   -3.9441  -27.3399 H       1  LIG1        0.0639
     47 H         -40.1385   -3.0118  -28.4636 H       1  LIG1        0.0830
     48 H         -37.5843   -5.4436  -26.2815 H       1  LIG1        0.0830
     49 H         -39.4782   -6.4501  -25.0341 H       1  LIG1        0.0639
     50 H         -46.1721   -1.9985  -26.8996 H       1  LIG1        0.0654
     51 C         -46.2006    6.2099  -27.1498 C.2     1  LIG1        0.3389
     52 O         -45.1909    6.8988  -27.0142 O.2     1  LIG1       -0.2450
     53 C         -48.4072    6.1022  -28.2382 C.3     1  LIG1        0.0820
     54 H         -48.9885    6.8266  -28.8111 H       1  LIG1        0.0661
     55 H         -47.9890    5.3816  -28.9446 H       1  LIG1        0.0661
     56 H         -49.0970    5.5809  -27.5734 H       1  LIG1        0.0661
@<TRIPOS>BOND
     1     1    51    1
     2     1    53    1
     3     2     3   ar
     4     2     7   ar
     5     2    51    1
     6     3     4   ar
     7     3    32    1
     8     4     5   ar
     9     4    33    1
    10     5     6   ar
    11     5     8    1
    12     6     7   ar
    13     6    34    1
    14     7    35    1
    15     8     9    1
    16     8    36    1
    17     8    37    1
    18     9    10    1
    19    10    11   ar
    20    10    15   ar
    21    11    12   ar
    22    11    38    1
    23    12    13   ar
    24    12    39    1
    25    13    14   ar
    26    13    16    1
    27    14    15   ar
    28    14    40    1
    29    15    50    1
    30    16    17   ar
    31    16    25   ar
    32    17    18    1
    33    17    23   ar
    34    18    19    2
    35    18    20   am
    36    20    21    1
    37    20    41    1
    38    21    22    1
    39    21    42    1
    40    21    43    1
    41    22    23    1
    42    22    44    1
    43    22    45    1
    44    23    24   ar
    45    24    25   ar
    46    25    26    1
    47    26    27   ar
    48    26    31   ar
    49    27    28   ar
    50    27    46    1
    51    28    29   ar
    52    28    47    1
    53    29    30   ar
    54    30    31   ar
    55    30    48    1
    56    31    49    1
    57    51    52    2
    58    53    54    1
    59    53    55    1
    60    53    56    1
