@<TRIPOS>MOLECULE
2879
 54 58 0 0 0
SMALL
GASTEIGER
****
Structure written by MMmdl.
@<TRIPOS>ATOM
      1 O         -46.1580    6.0775  -27.0525 O.3     1  LIG1       -0.4951
      2 C         -45.8233    6.6162  -25.7931 C.3     1  LIG1        0.0788
      3 C         -46.1667    4.7143  -27.0067 C.ar    1  LIG1        0.1201
      4 C         -47.2083    4.0265  -26.3731 C.ar    1  LIG1       -0.0196
      5 C         -47.1876    2.6368  -26.3009 C.ar    1  LIG1       -0.0519
      6 C         -46.1171    1.9277  -26.8479 C.ar    1  LIG1       -0.0102
      7 C         -45.0913    2.6088  -27.5045 C.ar    1  LIG1       -0.0519
      8 C         -45.1119    3.9981  -27.5775 C.ar    1  LIG1       -0.0196
      9 C         -46.0538    0.4148  -26.7335 C.3     1  LIG1        0.1146
     10 O         -44.8967    0.0818  -25.9724 O.3     1  LIG1       -0.4874
     11 C         -44.5607   -1.2371  -25.7477 C.ar    1  LIG1        0.1210
     12 C         -43.4469   -1.4895  -24.9492 C.ar    1  LIG1       -0.0193
     13 C         -43.0691   -2.8093  -24.7232 C.ar    1  LIG1       -0.0504
     14 C         -43.8120   -3.8516  -25.2814 C.ar    1  LIG1       -0.0134
     15 C         -44.9303   -3.5210  -26.0536 C.ar    1  LIG1       -0.0504
     16 C         -45.3094   -2.2381  -26.2957 C.ar    1  LIG1       -0.0193
     17 C         -43.3912   -5.2553  -25.0223 C.ar    1  LIG1        0.0398
     18 C         -44.1181   -6.2319  -24.3390 C.ar    1  LIG1        0.1316
     19 C         -45.4847   -6.2952  -23.8401 C.2     1  LIG1        0.2628
     20 O         -46.4030   -5.5073  -24.0562 O.2     1  LIG1       -0.2685
     21 N         -45.7029   -7.3800  -23.0551 N.am    1  LIG1       -0.3083
     22 C         -44.6774   -8.3505  -22.6202 C.3     1  LIG1        0.0315
     23 C         -43.6309   -8.6109  -23.7317 C.3     1  LIG1        0.0579
     24 N         -43.2737   -7.3202  -24.2988 N.ar    1  LIG1       -0.2566
     25 N         -42.1070   -7.0991  -24.9094 N.ar    1  LIG1       -0.1698
     26 C         -42.1504   -5.8579  -25.3427 C.ar    1  LIG1        0.1013
     27 C         -40.9745   -5.2739  -26.0719 C.ar    1  LIG1        0.0056
     28 C         -41.1477   -4.2963  -27.0626 C.ar    1  LIG1       -0.0343
     29 C         -40.0264   -3.7727  -27.7068 C.ar    1  LIG1        0.0282
     30 N         -38.7618   -4.1787  -27.4346 N.ar    1  LIG1       -0.2632
     31 C         -38.5985   -5.1325  -26.4843 C.ar    1  LIG1        0.0282
     32 C         -39.6669   -5.6976  -25.7859 C.ar    1  LIG1       -0.0343
     33 H         -44.8585    6.2429  -25.4478 H       1  LIG1        0.0660
     34 H         -45.7588    7.7025  -25.8287 H       1  LIG1        0.0660
     35 H         -46.5696    6.3545  -25.0423 H       1  LIG1        0.0660
     36 H         -48.0309    4.5637  -25.9249 H       1  LIG1        0.0654
     37 H         -48.0006    2.1169  -25.8157 H       1  LIG1        0.0622
     38 H         -44.2737    2.0595  -27.9466 H       1  LIG1        0.0622
     39 H         -44.2997    4.5169  -28.0648 H       1  LIG1        0.0654
     40 H         -46.0040   -0.0155  -27.7344 H       1  LIG1        0.0748
     41 H         -46.9529    0.0259  -26.2520 H       1  LIG1        0.0748
     42 H         -42.8825   -0.6783  -24.5163 H       1  LIG1        0.0654
     43 H         -42.2033   -3.0199  -24.1153 H       1  LIG1        0.0625
     44 H         -45.5407   -4.2955  -26.4949 H       1  LIG1        0.0625
     45 H         -46.6558   -7.5436  -22.7611 H       1  LIG1        0.1491
     46 H         -45.1527   -9.2795  -22.3050 H       1  LIG1        0.0480
     47 H         -44.2134   -7.9236  -21.7293 H       1  LIG1        0.0480
     48 H         -44.0714   -9.2017  -24.5309 H       1  LIG1        0.0524
     49 H         -42.7438   -9.1224  -23.3559 H       1  LIG1        0.0524
     50 H         -42.1295   -3.9441  -27.3399 H       1  LIG1        0.0639
     51 H         -40.1385   -3.0118  -28.4636 H       1  LIG1        0.0830
     52 H         -37.5843   -5.4436  -26.2815 H       1  LIG1        0.0830
     53 H         -39.4782   -6.4501  -25.0341 H       1  LIG1        0.0639
     54 H         -46.1721   -1.9985  -26.8996 H       1  LIG1        0.0654
@<TRIPOS>BOND
     1     1     2    1
     2     1     3    1
     3     2    33    1
     4     2    34    1
     5     2    35    1
     6     3     4   ar
     7     3     8   ar
     8     4     5   ar
     9     4    36    1
    10     5     6   ar
    11     5    37    1
    12     6     7   ar
    13     6     9    1
    14     7     8   ar
    15     7    38    1
    16     8    39    1
    17     9    10    1
    18     9    40    1
    19     9    41    1
    20    10    11    1
    21    11    12   ar
    22    11    16   ar
    23    12    13   ar
    24    12    42    1
    25    13    14   ar
    26    13    43    1
    27    14    15   ar
    28    14    17    1
    29    15    16   ar
    30    15    44    1
    31    16    54    1
    32    17    18   ar
    33    17    26   ar
    34    18    19    1
    35    18    24   ar
    36    19    20    2
    37    19    21   am
    38    21    22    1
    39    21    45    1
    40    22    23    1
    41    22    46    1
    42    22    47    1
    43    23    24    1
    44    23    48    1
    45    23    49    1
    46    24    25   ar
    47    25    26   ar
    48    26    27    1
    49    27    28   ar
    50    27    32   ar
    51    28    29   ar
    52    28    50    1
    53    29    30   ar
    54    29    51    1
    55    30    31   ar
    56    31    32   ar
    57    31    52    1
    58    32    53    1
